New Line.LINE25 Bus1=25 Bus2=26 phases=3 Linecode=2c_16 Length=10.1369 Units=m
New Line.LINE51 Bus1=47 Bus2=52 phases=3 Linecode=2c_16 Length=5.4578 Units=m
New Line.LINE52 Bus1=47 Bus2=53 phases=3 Linecode=2c_16 Length=5.4578 Units=m
New Line.LINE73 Bus1=70 Bus2=74 phases=3 Linecode=2c_16 Length=7.0789 Units=m
New Line.LINE74 Bus1=70 Bus2=75 phases=3 Linecode=2c_16 Length=7.0789 Units=m
New Line.LINE145 Bus1=139 Bus2=146 phases=3 Linecode=4c_.35 Length=0.81707 Units=m
New Line.LINE146 Bus1=139 Bus2=147 phases=3 Linecode=2c_16 Length=12.2672 Units=m
New Line.LINE153 Bus1=146 Bus2=154 phases=3 Linecode=4c_.35 Length=3.0035 Units=m
New Line.LINE158 Bus1=149 Bus2=159 phases=3 Linecode=2c_16 Length=11.3628 Units=m
New Line.LINE164 Bus1=154 Bus2=165 phases=3 Linecode=4c_.35 Length=1.9437 Units=m
New Line.LINE178 Bus1=165 Bus2=179 phases=3 Linecode=4c_.35 Length=2.6592 Units=m
New Line.LINE191 Bus1=179 Bus2=192 phases=3 Linecode=4c_.35 Length=2.2367 Units=m
New Line.LINE203 Bus1=192 Bus2=204 phases=3 Linecode=4c_.35 Length=2.2392 Units=m
New Line.LINE215 Bus1=204 Bus2=216 phases=3 Linecode=4c_.35 Length=0.87991 Units=m
New Line.LINE227 Bus1=216 Bus2=228 phases=3 Linecode=2c_16 Length=6.6322 Units=m
New Line.LINE239 Bus1=228 Bus2=240 phases=3 Linecode=2c_16 Length=0.37459 Units=m
New Line.LINE246 Bus1=234 Bus2=247 phases=3 Linecode=2c_25 Length=4.6779 Units=m
New Line.LINE247 Bus1=234 Bus2=248 phases=3 Linecode=2c_25 Length=4.6779 Units=m
New Line.LINE254 Bus1=240 Bus2=255 phases=3 Linecode=2c_16 Length=0.2864 Units=m
New Line.LINE265 Bus1=255 Bus2=266 phases=3 Linecode=2c_16 Length=0.26559 Units=m
New Line.LINE278 Bus1=266 Bus2=279 phases=3 Linecode=2c_16 Length=0.35052 Units=m
New Line.LINE286 Bus1=274 Bus2=287 phases=3 Linecode=2c_16 Length=6.2806 Units=m
New Line.LINE287 Bus1=274 Bus2=288 phases=3 Linecode=2c_16 Length=0.65928 Units=m
New Line.LINE292 Bus1=279 Bus2=293 phases=3 Linecode=2c_16 Length=2.3296 Units=m
New Line.LINE298 Bus1=284 Bus2=299 phases=3 Linecode=4c_70 Length=2.3625 Units=m
New Line.LINE301 Bus1=287 Bus2=302 phases=3 Linecode=2c_16 Length=8.3858 Units=m
New Line.LINE302 Bus1=287 Bus2=303 phases=3 Linecode=2c_16 Length=3.0457 Units=m
New Line.LINE307 Bus1=293 Bus2=308 phases=3 Linecode=2c_16 Length=0.18926 Units=m
New Line.LINE311 Bus1=299 Bus2=312 phases=3 Linecode=4c_.1 Length=5.5191 Units=m
New Line.LINE319 Bus1=308 Bus2=320 phases=3 Linecode=2c_16 Length=0.2188 Units=m
New Line.LINE322 Bus1=312 Bus2=323 phases=3 Linecode=4c_.1 Length=1.1295 Units=m
New Line.LINE331 Bus1=320 Bus2=332 phases=3 Linecode=2c_16 Length=0.19741 Units=m
New Line.LINE334 Bus1=323 Bus2=335 phases=3 Linecode=4c_.1 Length=3.8224 Units=m
New Line.LINE345 Bus1=332 Bus2=346 phases=3 Linecode=2c_16 Length=1.9704 Units=m
New Line.LINE348 Bus1=335 Bus2=349 phases=3 Linecode=4c_.1 Length=3.0977 Units=m
New Line.LINE359 Bus1=346 Bus2=360 phases=3 Linecode=2c_16 Length=0.061033 Units=m
New Line.LINE372 Bus1=360 Bus2=373 phases=3 Linecode=2c_16 Length=0.064351 Units=m
New Line.LINE383 Bus1=372 Bus2=384 phases=3 Linecode=2c_16 Length=10.1257 Units=m
New Line.LINE385 Bus1=373 Bus2=386 phases=3 Linecode=2c_16 Length=0.047539 Units=m
New Line.LINE396 Bus1=382 Bus2=397 phases=3 Linecode=2c_16 Length=4.8984 Units=m
New Line.LINE402 Bus1=386 Bus2=403 phases=3 Linecode=2c_16 Length=0.059135 Units=m
New Line.LINE419 Bus1=403 Bus2=420 phases=3 Linecode=2c_16 Length=0.052154 Units=m
New Line.LINE432 Bus1=420 Bus2=433 phases=3 Linecode=2c_16 Length=0.05316 Units=m
New Line.LINE445 Bus1=433 Bus2=446 phases=3 Linecode=2c_16 Length=0.089894 Units=m
New Line.LINE446 Bus1=434 Bus2=447 phases=3 Linecode=2c_.0225 Length=4.5589 Units=m
New Line.LINE447 Bus1=434 Bus2=448 phases=3 Linecode=2c_.0225 Length=4.5589 Units=m
New Line.LINE457 Bus1=446 Bus2=458 phases=3 Linecode=2c_16 Length=1.0885 Units=m
New Line.LINE467 Bus1=458 Bus2=468 phases=3 Linecode=2c_16 Length=5.8174 Units=m
New Line.LINE515 Bus1=509 Bus2=516 phases=3 Linecode=4c_.1 Length=2.6435 Units=m
New Line.LINE589 Bus1=584 Bus2=590 phases=3 Linecode=2c_.0225 Length=5.4565 Units=m
New Line.LINE590 Bus1=584 Bus2=591 phases=3 Linecode=2c_.0225 Length=5.4565 Units=m
New Line.LINE644 Bus1=636 Bus2=645 phases=3 Linecode=2c_16 Length=5.1742 Units=m
New Line.LINE733 Bus1=727 Bus2=734 phases=3 Linecode=4c_.06 Length=0.3233 Units=m
New Line.LINE740 Bus1=734 Bus2=741 phases=3 Linecode=4c_.06 Length=0.605 Units=m
New Line.LINE748 Bus1=741 Bus2=749 phases=3 Linecode=4c_.06 Length=7.1217 Units=m
New Line.LINE755 Bus1=749 Bus2=756 phases=3 Linecode=4c_.06 Length=0.40321 Units=m
New Line.LINE762 Bus1=756 Bus2=763 phases=3 Linecode=4c_.06 Length=0.42048 Units=m
New Line.LINE771 Bus1=763 Bus2=772 phases=3 Linecode=4c_.06 Length=0.78485 Units=m
New Line.LINE778 Bus1=772 Bus2=779 phases=3 Linecode=4c_.06 Length=0.42155 Units=m
New Line.LINE785 Bus1=779 Bus2=786 phases=3 Linecode=4c_.06 Length=0.30887 Units=m
New Line.LINE791 Bus1=786 Bus2=792 phases=3 Linecode=4c_.06 Length=0.39187 Units=m
New Line.LINE797 Bus1=792 Bus2=798 phases=3 Linecode=4c_.06 Length=2.9463 Units=m
New Line.LINE803 Bus1=798 Bus2=804 phases=3 Linecode=2c_16 Length=4.8405 Units=m
New Line.LINE810 Bus1=804 Bus2=811 phases=3 Linecode=2c_16 Length=0.44531 Units=m
New Line.LINE818 Bus1=811 Bus2=819 phases=3 Linecode=2c_16 Length=0.10208 Units=m
New Line.LINE824 Bus1=819 Bus2=825 phases=3 Linecode=2c_16 Length=0.16603 Units=m
New Line.LINE831 Bus1=825 Bus2=832 phases=3 Linecode=2c_16 Length=0.147 Units=m
New Line.LINE837 Bus1=832 Bus2=838 phases=3 Linecode=2c_16 Length=0.48196 Units=m
New Line.LINE840 Bus1=834 Bus2=841 phases=3 Linecode=4c_.1 Length=7.903 Units=m
New Line.LINE843 Bus1=838 Bus2=844 phases=3 Linecode=2c_16 Length=0.40877 Units=m
New Line.LINE850 Bus1=844 Bus2=851 phases=3 Linecode=2c_16 Length=0.24286 Units=m
New Line.LINE856 Bus1=851 Bus2=857 phases=3 Linecode=2c_16 Length=0.26875 Units=m
New Line.LINE861 Bus1=857 Bus2=862 phases=3 Linecode=2c_16 Length=0.18927 Units=m
New Line.LINE866 Bus1=862 Bus2=867 phases=3 Linecode=2c_16 Length=0.32812 Units=m
New Line.LINE871 Bus1=867 Bus2=872 phases=3 Linecode=2c_16 Length=1.6631 Units=m
New Line.LINE877 Bus1=872 Bus2=878 phases=3 Linecode=2c_16 Length=0.44364 Units=m
New Line.LINE880 Bus1=875 Bus2=881 phases=3 Linecode=4c_.1 Length=6.8244 Units=m
New Line.LINE883 Bus1=878 Bus2=884 phases=3 Linecode=2c_16 Length=0.15023 Units=m
New Line.LINE886 Bus1=881 Bus2=887 phases=3 Linecode=4c_.1 Length=7.2792 Units=m
New Line.LINE890 Bus1=884 Bus2=891 phases=3 Linecode=2c_16 Length=0.1072 Units=m
New Line.LINE896 Bus1=891 Bus2=897 phases=3 Linecode=2c_16 Length=0.12126 Units=m
New Line.LINE985 Bus1=977 Bus2=986 phases=3 Linecode=4c_.06 Length=10.2993 Units=m
New Line.LINE994 Bus1=986 Bus2=995 phases=3 Linecode=4c_.06 Length=0.38687 Units=m
New Line.LINE1002 Bus1=995 Bus2=1003 phases=3 Linecode=4c_.06 Length=0.25739 Units=m
New Line.LINE1009 Bus1=1003 Bus2=1010 phases=3 Linecode=4c_.06 Length=0.18436 Units=m
New Line.LINE1016 Bus1=1010 Bus2=1017 phases=3 Linecode=4c_.06 Length=0.22862 Units=m
New Line.LINE1023 Bus1=1017 Bus2=1024 phases=3 Linecode=4c_.06 Length=0.24098 Units=m
New Line.LINE1029 Bus1=1024 Bus2=1030 phases=3 Linecode=4c_.06 Length=0.31699 Units=m
New Line.LINE1035 Bus1=1030 Bus2=1036 phases=3 Linecode=4c_.06 Length=2.4781 Units=m
New Line.LINE1041 Bus1=1036 Bus2=1042 phases=3 Linecode=3c_95_SAC_ASN Length=7.8993 Units=m
New Line.LINE1047 Bus1=1042 Bus2=1048 phases=3 Linecode=3c_95_SAC_ASN Length=1.0414 Units=m
New Line.LINE1053 Bus1=1048 Bus2=1054 phases=3 Linecode=3c_95_SAC_ASN Length=0.73642 Units=m
New Line.LINE1057 Bus1=1054 Bus2=1058 phases=3 Linecode=3c_95_SAC_ASN Length=1.5098 Units=m
New Line.LINE1061 Bus1=1058 Bus2=1062 phases=3 Linecode=3c_95_SAC_ASN Length=8.6694 Units=m
New Line.LINE1066 Bus1=1062 Bus2=1067 phases=3 Linecode=3c_95_SAC_ASN Length=3.2869 Units=m
New Line.LINE1069 Bus1=1065 Bus2=1070 phases=3 Linecode=4c_.1 Length=9.7646 Units=m
New Line.LINE1072 Bus1=1067 Bus2=1073 phases=3 Linecode=3c_95_SAC_ASN Length=2.68 Units=m
New Line.LINE1075 Bus1=1070 Bus2=1076 phases=3 Linecode=4c_.1 Length=5.8051 Units=m
New Line.LINE1079 Bus1=1073 Bus2=1080 phases=3 Linecode=3c_95_SAC_ASN Length=3.0909 Units=m
New Line.LINE1086 Bus1=1080 Bus2=1087 phases=3 Linecode=3c_95_SAC_ASN Length=37.8819 Units=m
New Line.LINE1092 Bus1=1087 Bus2=1093 phases=3 Linecode=4c_95_SAC_XC Length=8.1468 Units=m
New Line.LINE1097 Bus1=1093 Bus2=1098 phases=3 Linecode=4c_95_SAC_XC Length=6.2134 Units=m
New Line.LINE1101 Bus1=1098 Bus2=1102 phases=3 Linecode=4c_95_SAC_XC Length=0.24761 Units=m
New Line.LINE1105 Bus1=1102 Bus2=1106 phases=3 Linecode=4c_95_SAC_XC Length=0.24613 Units=m
New Line.LINE1109 Bus1=1106 Bus2=1110 phases=3 Linecode=4c_95_SAC_XC Length=0.4614 Units=m
New Line.LINE1113 Bus1=1110 Bus2=1114 phases=3 Linecode=4c_95_SAC_XC Length=2.6215 Units=m
New Line.LINE1117 Bus1=1114 Bus2=1118 phases=3 Linecode=4c_95_SAC_XC Length=0.84712 Units=m
New Line.LINE1121 Bus1=1118 Bus2=1122 phases=3 Linecode=4c_95_SAC_XC Length=4.9904 Units=m
New Line.LINE1125 Bus1=1122 Bus2=1126 phases=3 Linecode=4c_95_SAC_XC Length=54.682 Units=m
New Line.LINE1129 Bus1=1126 Bus2=1130 phases=3 Linecode=4c_95_SAC_XC Length=50.1986 Units=m
New Line.LINE1133 Bus1=1130 Bus2=1134 phases=3 Linecode=4c_95_SAC_XC Length=47.8102 Units=m
New Line.LINE1156 Bus1=1156 Bus2=1157 phases=3 Linecode=4c_.1 Length=2.8873 Units=m
New Line.LINE1186 Bus1=1184 Bus2=1187 phases=3 Linecode=2c_.022 Length=8.2247 Units=m
New Line.LINE1213 Bus1=1210 Bus2=1214 phases=3 Linecode=4c_.1 Length=0.48899 Units=m
New Line.LINE1216 Bus1=1214 Bus2=1217 phases=3 Linecode=4c_.1 Length=2.0321 Units=m
New Line.LINE1218 Bus1=1217 Bus2=1219 phases=3 Linecode=4c_.1 Length=1.28 Units=m
New Line.LINE1220 Bus1=1219 Bus2=1221 phases=3 Linecode=4c_.1 Length=4.098 Units=m
New Line.LINE1222 Bus1=1221 Bus2=1223 phases=3 Linecode=2c_.0225 Length=0.12763 Units=m
New Line.LINE1223 Bus1=1223 Bus2=1224 phases=3 Linecode=2c_.0225 Length=0.1714 Units=m
New Line.LINE1224 Bus1=1224 Bus2=1225 phases=3 Linecode=2c_.0225 Length=0.14654 Units=m
New Line.LINE1225 Bus1=1225 Bus2=1226 phases=3 Linecode=2c_.0225 Length=0.128 Units=m
New Line.LINE1226 Bus1=1226 Bus2=1227 phases=3 Linecode=2c_.0225 Length=0.30359 Units=m
New Line.LINE1227 Bus1=1227 Bus2=1228 phases=3 Linecode=2c_.0225 Length=0.21249 Units=m
New Line.LINE1228 Bus1=1228 Bus2=1229 phases=3 Linecode=2c_.0225 Length=10.4399 Units=m
New Line.LINE1229 Bus1=1229 Bus2=1230 phases=3 Linecode=2c_.0225 Length=5.0515 Units=m
New Line.LINECmpd_0 Bus1=897 Bus2=1022 phases=3 Linecode=2c_16 Length=11.42522 Units=m
New Line.LINECmpd_1 Bus1=549 Bus2=799 phases=3 Linecode=4c_.1 Length=40.1683 Units=m
New Line.LINECmpd_2 Bus1=1156 Bus2=1161 phases=3 Linecode=2c_.0225 Length=13.6364 Units=m
New Line.LINECmpd_3 Bus1=841 Bus2=875 phases=3 Linecode=4c_.1 Length=10.09443 Units=m
New Line.LINECmpd_4 Bus1=384 Bus2=522 phases=3 Linecode=2c_16 Length=4.726182 Units=m
New Line.LINECmpd_5 Bus1=84 Bus2=153 phases=3 Linecode=2c_16 Length=10.45979 Units=m
New Line.LINECmpd_6 Bus1=149 Bus2=231 phases=3 Linecode=4c_70 Length=15.8569 Units=m
New Line.LINECmpd_7 Bus1=820 Bus2=833 phases=3 Linecode=2c_.0225 Length=16.5379 Units=m
New Line.LINECmpd_8 Bus1=938 Bus2=1050 phases=3 Linecode=2c_.0225 Length=17.67265 Units=m
New Line.LINECmpd_9 Bus1=516 Bus2=584 phases=3 Linecode=2c_.0225 Length=10.31015 Units=m
New Line.LINECmpd_10 Bus1=225 Bus2=382 phases=3 Linecode=2c_16 Length=14.505165 Units=m
New Line.LINECmpd_11 Bus1=372 Bus2=585 phases=3 Linecode=4c_.06 Length=25.655544 Units=m
New Line.LINECmpd_12 Bus1=349 Bus2=459 phases=3 Linecode=4c_.1 Length=15.4385 Units=m
New Line.LINECmpd_13 Bus1=349 Bus2=492 phases=3 Linecode=2c_.0225 Length=19.76837 Units=m
New Line.LINECmpd_14 Bus1=977 Bus2=1065 phases=3 Linecode=4c_.1 Length=20.67172 Units=m
New Line.LINECmpd_15 Bus1=897 Bus2=945 phases=3 Linecode=2c_16 Length=3.762047 Units=m
New Line.LINECmpd_16 Bus1=1 Bus2=25 phases=3 Linecode=4c_70 Length=54.636444 Units=m
New Line.LINECmpd_17 Bus1=160 Bus2=234 phases=3 Linecode=2c_25 Length=4.20504 Units=m
New Line.LINECmpd_18 Bus1=84 Bus2=101 phases=3 Linecode=4c_.35 Length=15.5199 Units=m
New Line.LINECmpd_19 Bus1=116 Bus2=174 phases=3 Linecode=2c_16 Length=15.80622 Units=m
New Line.LINECmpd_20 Bus1=1100 Bus2=1144 phases=3 Linecode=2c_.0225 Length=13.15101 Units=m
New Line.LINECmpd_21 Bus1=887 Bus2=1000 phases=3 Linecode=2c_.0225 Length=13.06953 Units=m
New Line.LINECmpd_22 Bus1=605 Bus2=631 phases=3 Linecode=2c_16 Length=9.25759 Units=m
New Line.LINECmpd_23 Bus1=181 Bus2=206 phases=3 Linecode=2c_16 Length=6.0979 Units=m
New Line.LINECmpd_24 Bus1=153 Bus2=292 phases=3 Linecode=2c_16 Length=8.868836 Units=m
New Line.LINECmpd_25 Bus1=631 Bus2=679 phases=3 Linecode=2c_16 Length=6.00783 Units=m
New Line.LINECmpd_26 Bus1=1166 Bus2=1184 phases=3 Linecode=4c_.1 Length=12.11178 Units=m
New Line.LINECmpd_27 Bus1=898 Bus2=989 phases=3 Linecode=2c_.0225 Length=10.59284 Units=m
New Line.LINECmpd_28 Bus1=44 Bus2=84 phases=3 Linecode=4c_.35 Length=35.85086 Units=m
New Line.LINECmpd_29 Bus1=380 Bus2=473 phases=3 Linecode=2c_16 Length=8.663245 Units=m
New Line.LINECmpd_30 Bus1=225 Bus2=291 phases=3 Linecode=4c_.06 Length=16.0809 Units=m
New Line.LINECmpd_31 Bus1=1187 Bus2=1212 phases=3 Linecode=2c_.022 Length=7.2967 Units=m
New Line.LINECmpd_32 Bus1=687 Bus2=708 phases=3 Linecode=2c_16 Length=12.069 Units=m
New Line.LINECmpd_33 Bus1=481 Bus2=520 phases=3 Linecode=2c_.0225 Length=9.174508 Units=m
New Line.LINECmpd_34 Bus1=26 Bus2=47 phases=3 Linecode=2c_16 Length=3.24638 Units=m
New Line.LINECmpd_35 Bus1=459 Bus2=509 phases=3 Linecode=4c_.1 Length=14.4004 Units=m
New Line.LINECmpd_36 Bus1=834 Bus2=886 phases=3 Linecode=2c_.0225 Length=17.78346 Units=m
New Line.LINECmpd_37 Bus1=258 Bus2=434 phases=3 Linecode=2c_.0225 Length=26.07368 Units=m
New Line.LINECmpd_38 Bus1=50 Bus2=70 phases=3 Linecode=2c_16 Length=2.53242 Units=m
New Line.LINECmpd_39 Bus1=44 Bus2=80 phases=3 Linecode=4c_70 Length=12.70951 Units=m
New Line.LINECmpd_40 Bus1=632 Bus2=739 phases=3 Linecode=2c_16 Length=10.90506 Units=m
New Line.LINECmpd_41 Bus1=80 Bus2=93 phases=3 Linecode=4c_70 Length=11.54 Units=m
New Line.LINECmpd_42 Bus1=585 Bus2=636 phases=3 Linecode=2c_16 Length=5.13646 Units=m
New Line.LINECmpd_43 Bus1=382 Bus2=414 phases=3 Linecode=2c_16 Length=9.9679 Units=m
New Line.LINECmpd_44 Bus1=330 Bus2=484 phases=3 Linecode=2c_16 Length=7.00036 Units=m
New Line.LINECmpd_45 Bus1=147 Bus2=280 phases=3 Linecode=2c_16 Length=8.95362 Units=m
New Line.LINECmpd_46 Bus1=881 Bus2=960 phases=3 Linecode=2c_.0225 Length=18.548293 Units=m
New Line.LINECmpd_47 Bus1=1100 Bus2=1156 phases=3 Linecode=4c_.1 Length=9.99956 Units=m
New Line.LINECmpd_48 Bus1=25 Bus2=37 phases=3 Linecode=4c_70 Length=19.8543 Units=m
New Line.LINECmpd_49 Bus1=101 Bus2=139 phases=3 Linecode=4c_.35 Length=16.564 Units=m
New Line.LINECmpd_50 Bus1=636 Bus2=783 phases=3 Linecode=2c_16 Length=12.11021 Units=m
New Line.LINECmpd_51 Bus1=231 Bus2=380 phases=3 Linecode=2c_16 Length=15.53551 Units=m
New Line.LINECmpd_52 Bus1=1157 Bus2=1166 phases=3 Linecode=4c_.1 Length=10.77682 Units=m
New Line.LINECmpd_53 Bus1=898 Bus2=921 phases=3 Linecode=4c_.1 Length=11.4748 Units=m
New Line.LINECmpd_54 Bus1=1199 Bus2=1207 phases=3 Linecode=2c_.0225 Length=11.4721 Units=m
New Line.LINECmpd_55 Bus1=162 Bus2=274 phases=3 Linecode=2c_16 Length=12.621488 Units=m
New Line.LINECmpd_56 Bus1=739 Bus2=831 phases=3 Linecode=2c_16 Length=14.50815 Units=m
New Line.LINECmpd_57 Bus1=481 Bus2=554 phases=3 Linecode=2c_.0225 Length=5.05037 Units=m
New Line.LINECmpd_58 Bus1=799 Bus2=816 phases=3 Linecode=2c_.0225 Length=14.4331 Units=m
New Line.LINECmpd_59 Bus1=1070 Bus2=1085 phases=3 Linecode=2c_.0225 Length=10.1473 Units=m
New Line.LINECmpd_60 Bus1=631 Bus2=692 phases=3 Linecode=2c_16 Length=5.251367 Units=m
New Line.LINECmpd_61 Bus1=799 Bus2=820 phases=3 Linecode=4c_.1 Length=10.9981 Units=m
New Line.LINECmpd_62 Bus1=841 Bus2=854 phases=3 Linecode=2c_.0225 Length=16.7391 Units=m
New Line.LINECmpd_63 Bus1=549 Bus2=622 phases=3 Linecode=2c_.0225 Length=25.24848 Units=m
New Line.LINECmpd_64 Bus1=291 Bus2=372 phases=3 Linecode=4c_.06 Length=16.9026 Units=m
New Line.LINECmpd_65 Bus1=162 Bus2=225 phases=3 Linecode=4c_.06 Length=10.7353 Units=m
New Line.LINECmpd_66 Bus1=739 Bus2=802 phases=3 Linecode=2c_16 Length=3.24856 Units=m
New Line.LINECmpd_67 Bus1=330 Bus2=358 phases=3 Linecode=2c_16 Length=6.4466 Units=m
New Line.LINECmpd_68 Bus1=93 Bus2=149 phases=3 Linecode=4c_70 Length=21.0089 Units=m
New Line.LINECmpd_69 Bus1=687 Bus2=727 phases=3 Linecode=4c_.06 Length=10.95893 Units=m
New Line.LINECmpd_70 Bus1=101 Bus2=181 phases=3 Linecode=2c_16 Length=13.21182 Units=m
New Line.LINECmpd_71 Bus1=516 Bus2=549 phases=3 Linecode=4c_.1 Length=10.2965 Units=m
New Line.LINECmpd_72 Bus1=116 Bus2=162 phases=3 Linecode=4c_.06 Length=23.34418 Units=m
New Line.LINECmpd_73 Bus1=37 Bus2=50 phases=3 Linecode=2c_16 Length=8.62003 Units=m
New Line.LINECmpd_74 Bus1=1184 Bus2=1199 phases=3 Linecode=4c_.1 Length=12.1851 Units=m
New Line.LINECmpd_75 Bus1=93 Bus2=160 phases=3 Linecode=2c_25 Length=10.25682 Units=m
New Line.LINECmpd_76 Bus1=147 Bus2=167 phases=3 Linecode=2c_16 Length=6.2108 Units=m
New Line.LINECmpd_77 Bus1=335 Bus2=366 phases=3 Linecode=2c_.0225 Length=15.8841 Units=m
New Line.LINECmpd_78 Bus1=159 Bus2=246 phases=3 Linecode=2c_16 Length=6.90775 Units=m
New Line.LINECmpd_79 Bus1=153 Bus2=190 phases=3 Linecode=2c_16 Length=5.84477 Units=m
New Line.LINECmpd_80 Bus1=605 Bus2=632 phases=3 Linecode=4c_.06 Length=8.25821 Units=m
New Line.LINECmpd_81 Bus1=160 Bus2=249 phases=3 Linecode=2c_25 Length=9.51421 Units=m
New Line.LINECmpd_82 Bus1=1199 Bus2=1210 phases=3 Linecode=4c_.1 Length=6.4832 Units=m
New Line.LINECmpd_83 Bus1=632 Bus2=687 phases=3 Linecode=4c_.06 Length=4.78075 Units=m
New Line.LINECmpd_84 Bus1=1076 Bus2=1100 phases=3 Linecode=4c_.1 Length=7.574 Units=m
New Line.LINECmpd_85 Bus1=727 Bus2=748 phases=3 Linecode=2c_16 Length=12.2605 Units=m
New Line.LINECmpd_86 Bus1=291 Bus2=330 phases=3 Linecode=2c_16 Length=10.22234 Units=m
New Line.LINECmpd_87 Bus1=887 Bus2=898 phases=3 Linecode=4c_.1 Length=5.63356 Units=m
New Line.LINECmpd_88 Bus1=181 Bus2=294 phases=3 Linecode=2c_16 Length=8.25 Units=m
New Line.LINECmpd_89 Bus1=1076 Bus2=1091 phases=3 Linecode=2c_.0225 Length=10.4884 Units=m
New Line.LINECmpd_90 Bus1=284 Bus2=311 phases=3 Linecode=2c_.0225 Length=20.5954 Units=m
New Line.LINECmpd_91 Bus1=80 Bus2=116 phases=3 Linecode=4c_.06 Length=26.91034 Units=m
New Line.LINECmpd_92 Bus1=921 Bus2=939 phases=3 Linecode=2c_.0225 Length=12.5136 Units=m
New Line.LINECmpd_93 Bus1=938 Bus2=977 phases=3 Linecode=4c_.1 Length=16.49433 Units=m
New Line.LINECmpd_94 Bus1=384 Bus2=416 phases=3 Linecode=2c_16 Length=7.5079 Units=m
New Line.LINECmpd_95 Bus1=921 Bus2=938 phases=3 Linecode=4c_.1 Length=6.0046 Units=m
New Line.LINECmpd_96 Bus1=585 Bus2=605 phases=3 Linecode=4c_.06 Length=12.2941 Units=m
New Line.LINECmpd_97 Bus1=1157 Bus2=1163 phases=3 Linecode=2c_.0225 Length=13.8329 Units=m
New Line.LINECmpd_98 Bus1=231 Bus2=258 phases=3 Linecode=4c_70 Length=3.93754 Units=m
New Line.LINECmpd_99 Bus1=1134 Bus2=1147 phases=3 Linecode=4c_95_SAC_XC Length=17.7683 Units=m
New Line.LINECmpd_100 Bus1=1187 Bus2=1194 phases=3 Linecode=2c_.0225 Length=10.9111 Units=m
New Line.LINECmpd_101 Bus1=37 Bus2=44 phases=3 Linecode=4c_70 Length=13.2286 Units=m
New Line.LINECmpd_102 Bus1=50 Bus2=61 phases=3 Linecode=2c_16 Length=8.6888 Units=m
New Line.LINECmpd_103 Bus1=1166 Bus2=1172 phases=3 Linecode=2c_.0225 Length=13.332 Units=m
New Line.LINECmpd_104 Bus1=1065 Bus2=1078 phases=3 Linecode=2c_.0225 Length=10.411 Units=m
New Line.LINECmpd_105 Bus1=509 Bus2=527 phases=3 Linecode=2c_.0225 Length=12.8795 Units=m
New Line.LINECmpd_106 Bus1=875 Bus2=889 phases=3 Linecode=2c_.0225 Length=16.5615 Units=m
New Line.LINECmpd_107 Bus1=459 Bus2=481 phases=3 Linecode=2c_.0225 Length=10.690048 Units=m
New Line.LINECmpd_108 Bus1=159 Bus2=184 phases=3 Linecode=2c_16 Length=4.9572 Units=m
New Line.LINECmpd_109 Bus1=1134 Bus2=1150 phases=3 Linecode=4c_95_SAC_XC Length=52.2331 Units=m
New Line.LINECmpd_110 Bus1=380 Bus2=411 phases=3 Linecode=2c_16 Length=4.5837 Units=m
New Line.LINECmpd_111 Bus1=820 Bus2=834 phases=3 Linecode=4c_.1 Length=3.24018 Units=m
New Line.LINECmpd_112 Bus1=1210 Bus2=1216 phases=3 Linecode=2c_.0225 Length=17.4098 Units=m
New Line.LINECmpd_113 Bus1=26 Bus2=32 phases=3 Linecode=2c_16 Length=6.8569 Units=m
New Line.LINECmpd_114 Bus1=258 Bus2=284 phases=3 Linecode=4c_70 Length=3.4968 Units=m
