New Line.LINE14_1 Bus1=14_1 Bus2=14_2 phases=3 Linecode=4c_70 Length=1.6321 Units=m
New Line.LINE14_2 Bus1=14_2 Bus2=14_3 phases=3 Linecode=4c_70 Length=0.10717 Units=m
New Line.LINE14_3 Bus1=14_3 Bus2=14_4 phases=3 Linecode=4c_70 Length=0.117 Units=m
New Line.LINE14_4 Bus1=14_4 Bus2=14_5 phases=3 Linecode=4c_70 Length=0.091214 Units=m
New Line.LINE14_5 Bus1=14_5 Bus2=14_6 phases=3 Linecode=4c_70 Length=0.14414 Units=m
New Line.LINE14_6 Bus1=14_6 Bus2=14_7 phases=3 Linecode=4c_70 Length=11.806 Units=m
New Line.LINE14_7 Bus1=14_7 Bus2=14_8 phases=3 Linecode=4c_70 Length=0.24604 Units=m
New Line.LINE14_8 Bus1=14_8 Bus2=14_9 phases=3 Linecode=4c_70 Length=0.1472 Units=m
New Line.LINE14_9 Bus1=14_9 Bus2=14_10 phases=3 Linecode=4c_70 Length=0.22532 Units=m
New Line.LINE14_10 Bus1=14_10 Bus2=14_11 phases=3 Linecode=4c_70 Length=0.26642 Units=m
New Line.LINE14_11 Bus1=14_11 Bus2=14_12 phases=3 Linecode=4c_70 Length=0.2826 Units=m
New Line.LINE14_12 Bus1=14_12 Bus2=14_13 phases=3 Linecode=4c_70 Length=0.41208 Units=m
New Line.LINE14_13 Bus1=14_13 Bus2=14_14 phases=3 Linecode=4c_70 Length=7.3507 Units=m
New Line.LINE14_14 Bus1=14_14 Bus2=14_15 phases=3 Linecode=4c_70 Length=12.0736 Units=m
New Line.LINE14_15 Bus1=14_15 Bus2=14_16 phases=3 Linecode=4c_70 Length=2.6857 Units=m
New Line.LINE14_16 Bus1=14_16 Bus2=14_17 phases=3 Linecode=4c_70 Length=0.66612 Units=m
New Line.LINE14_17 Bus1=14_17 Bus2=14_18 phases=3 Linecode=4c_70 Length=0.44967 Units=m
New Line.LINE14_18 Bus1=14_18 Bus2=14_19 phases=3 Linecode=4c_70 Length=0.53827 Units=m
New Line.LINE14_19 Bus1=14_19 Bus2=14_20 phases=3 Linecode=4c_70 Length=0.9881 Units=m
New Line.LINE14_20 Bus1=14_20 Bus2=14_21 phases=3 Linecode=4c_70 Length=0.72993 Units=m
New Line.LINE14_21 Bus1=14_21 Bus2=14_22 phases=3 Linecode=4c_70 Length=0.45427 Units=m
New Line.LINE14_22 Bus1=14_22 Bus2=14_23 phases=3 Linecode=4c_70 Length=0.827 Units=m
New Line.LINE14_23 Bus1=14_23 Bus2=14_24 phases=3 Linecode=4c_70 Length=1.874 Units=m
New Line.LINE14_24 Bus1=14_24 Bus2=14_25 phases=3 Linecode=4c_70 Length=10.5218 Units=m
New Line.LINE14_25 Bus1=14_25 Bus2=14_26 phases=3 Linecode=2c_16 Length=10.1369 Units=m
New Line.LINE14_26 Bus1=14_25 Bus2=14_27 phases=3 Linecode=4c_70 Length=4.3326 Units=m
New Line.LINE14_27 Bus1=14_26 Bus2=14_28 phases=3 Linecode=2c_16 Length=0.60232 Units=m
New Line.LINE14_28 Bus1=14_26 Bus2=14_29 phases=3 Linecode=2c_16 Length=4.6018 Units=m
New Line.LINE14_29 Bus1=14_27 Bus2=14_30 phases=3 Linecode=4c_70 Length=3.1196 Units=m
New Line.LINE14_30 Bus1=14_28 Bus2=14_31 phases=3 Linecode=2c_16 Length=0.36641 Units=m
New Line.LINE14_31 Bus1=14_29 Bus2=14_32 phases=3 Linecode=2c_16 Length=2.2551 Units=m
New Line.LINE14_32 Bus1=14_30 Bus2=14_33 phases=3 Linecode=4c_70 Length=4.7735 Units=m
New Line.LINE14_33 Bus1=14_31 Bus2=14_34 phases=3 Linecode=2c_16 Length=0.27771 Units=m
New Line.LINE14_34 Bus1=14_33 Bus2=14_35 phases=3 Linecode=4c_70 Length=6.4445 Units=m
New Line.LINE14_35 Bus1=14_34 Bus2=14_36 phases=3 Linecode=2c_16 Length=0.10878 Units=m
New Line.LINE14_36 Bus1=14_35 Bus2=14_37 phases=3 Linecode=4c_70 Length=1.1841 Units=m
New Line.LINE14_37 Bus1=14_35 Bus2=14_38 phases=3 Linecode=4c_70 Length=0.27536 Units=m
New Line.LINE14_38 Bus1=14_36 Bus2=14_39 phases=3 Linecode=2c_16 Length=0.173 Units=m
New Line.LINE14_39 Bus1=14_37 Bus2=14_40 phases=3 Linecode=4c_70 Length=9.3527 Units=m
New Line.LINE14_40 Bus1=14_37 Bus2=14_41 phases=3 Linecode=2c_16 Length=7.9128 Units=m
New Line.LINE14_41 Bus1=14_38 Bus2=14_42 phases=3 Linecode=4c_70 Length=0.22361 Units=m
New Line.LINE14_42 Bus1=14_39 Bus2=14_43 phases=3 Linecode=2c_16 Length=0.31186 Units=m
New Line.LINE14_43 Bus1=14_40 Bus2=14_44 phases=3 Linecode=4c_70 Length=3.8759 Units=m
New Line.LINE14_44 Bus1=14_41 Bus2=14_45 phases=3 Linecode=2c_16 Length=0.52612 Units=m
New Line.LINE14_45 Bus1=14_42 Bus2=14_46 phases=3 Linecode=4c_70 Length=0.14142 Units=m
New Line.LINE14_46 Bus1=14_43 Bus2=14_47 phases=3 Linecode=2c_16 Length=1.4063 Units=m
New Line.LINE14_47 Bus1=14_44 Bus2=14_48 phases=3 Linecode=4c_70 Length=0.35526 Units=m
New Line.LINE14_48 Bus1=14_44 Bus2=14_49 phases=3 Linecode=4c_.35 Length=0.59758 Units=m
New Line.LINE14_49 Bus1=14_45 Bus2=14_50 phases=3 Linecode=2c_16 Length=0.18111 Units=m
New Line.LINE14_50 Bus1=14_46 Bus2=14_51 phases=3 Linecode=4c_70 Length=0.14241 Units=m
New Line.LINE14_51 Bus1=14_47 Bus2=14_52 phases=3 Linecode=2c_16 Length=5.4578 Units=m
New Line.LINE14_52 Bus1=14_47 Bus2=14_53 phases=3 Linecode=2c_16 Length=5.4578 Units=m
New Line.LINE14_53 Bus1=14_48 Bus2=14_54 phases=3 Linecode=4c_70 Length=0.31422 Units=m
New Line.LINE14_54 Bus1=14_49 Bus2=14_55 phases=3 Linecode=4c_.35 Length=1.0971 Units=m
New Line.LINE14_55 Bus1=14_50 Bus2=14_56 phases=3 Linecode=2c_16 Length=2.7753 Units=m
New Line.LINE14_56 Bus1=14_50 Bus2=14_57 phases=3 Linecode=2c_16 Length=0.22804 Units=m
New Line.LINE14_57 Bus1=14_51 Bus2=14_58 phases=3 Linecode=4c_70 Length=0.1077 Units=m
New Line.LINE14_58 Bus1=14_54 Bus2=14_59 phases=3 Linecode=4c_70 Length=0.79584 Units=m
New Line.LINE14_59 Bus1=14_55 Bus2=14_60 phases=3 Linecode=4c_.35 Length=1.146 Units=m
New Line.LINE14_60 Bus1=14_56 Bus2=14_61 phases=3 Linecode=2c_16 Length=5.9135 Units=m
New Line.LINE14_61 Bus1=14_57 Bus2=14_62 phases=3 Linecode=2c_16 Length=0.40581 Units=m
New Line.LINE14_62 Bus1=14_58 Bus2=14_63 phases=3 Linecode=4c_70 Length=0.16492 Units=m
New Line.LINE14_63 Bus1=14_59 Bus2=14_64 phases=3 Linecode=4c_70 Length=0.61433 Units=m
New Line.LINE14_64 Bus1=14_60 Bus2=14_65 phases=3 Linecode=4c_.35 Length=0.79306 Units=m
New Line.LINE14_65 Bus1=14_62 Bus2=14_66 phases=3 Linecode=2c_16 Length=0.40497 Units=m
New Line.LINE14_66 Bus1=14_63 Bus2=14_67 phases=3 Linecode=4c_70 Length=0.16 Units=m
New Line.LINE14_67 Bus1=14_64 Bus2=14_68 phases=3 Linecode=4c_70 Length=0.71946 Units=m
New Line.LINE14_68 Bus1=14_65 Bus2=14_69 phases=3 Linecode=4c_.35 Length=0.66993 Units=m
New Line.LINE14_69 Bus1=14_66 Bus2=14_70 phases=3 Linecode=2c_16 Length=1.4936 Units=m
New Line.LINE14_70 Bus1=14_67 Bus2=14_71 phases=3 Linecode=4c_70 Length=0.78409 Units=m
New Line.LINE14_71 Bus1=14_68 Bus2=14_72 phases=3 Linecode=4c_70 Length=1.3687 Units=m
New Line.LINE14_72 Bus1=14_69 Bus2=14_73 phases=3 Linecode=4c_.35 Length=0.68959 Units=m
New Line.LINE14_73 Bus1=14_70 Bus2=14_74 phases=3 Linecode=2c_16 Length=7.0789 Units=m
New Line.LINE14_74 Bus1=14_70 Bus2=14_75 phases=3 Linecode=2c_16 Length=7.0789 Units=m
New Line.LINE14_75 Bus1=14_72 Bus2=14_76 phases=3 Linecode=4c_70 Length=1.283 Units=m
New Line.LINE14_76 Bus1=14_73 Bus2=14_77 phases=3 Linecode=4c_.35 Length=0.545 Units=m
New Line.LINE14_77 Bus1=14_76 Bus2=14_78 phases=3 Linecode=4c_70 Length=1.6187 Units=m
New Line.LINE14_78 Bus1=14_77 Bus2=14_79 phases=3 Linecode=4c_.35 Length=3.711 Units=m
New Line.LINE14_79 Bus1=14_78 Bus2=14_80 phases=3 Linecode=4c_70 Length=5.64 Units=m
New Line.LINE14_80 Bus1=14_79 Bus2=14_81 phases=3 Linecode=4c_.35 Length=15.7062 Units=m
New Line.LINE14_81 Bus1=14_80 Bus2=14_82 phases=3 Linecode=4c_70 Length=5.6907 Units=m
New Line.LINE14_82 Bus1=14_80 Bus2=14_83 phases=3 Linecode=4c_.06 Length=0.77745 Units=m
New Line.LINE14_83 Bus1=14_81 Bus2=14_84 phases=3 Linecode=4c_.35 Length=10.8954 Units=m
New Line.LINE14_84 Bus1=14_82 Bus2=14_85 phases=3 Linecode=4c_70 Length=2.0177 Units=m
New Line.LINE14_85 Bus1=14_83 Bus2=14_86 phases=3 Linecode=4c_.06 Length=0.65932 Units=m
New Line.LINE14_86 Bus1=14_84 Bus2=14_87 phases=3 Linecode=2c_16 Length=4.2522 Units=m
New Line.LINE14_87 Bus1=14_84 Bus2=14_88 phases=3 Linecode=4c_.35 Length=8.424 Units=m
New Line.LINE14_88 Bus1=14_85 Bus2=14_89 phases=3 Linecode=4c_70 Length=2.2734 Units=m
New Line.LINE14_89 Bus1=14_86 Bus2=14_90 phases=3 Linecode=4c_.06 Length=0.9618 Units=m
New Line.LINE14_90 Bus1=14_87 Bus2=14_91 phases=3 Linecode=2c_16 Length=0.92655 Units=m
New Line.LINE14_91 Bus1=14_88 Bus2=14_92 phases=3 Linecode=4c_.35 Length=3.3908 Units=m
New Line.LINE14_92 Bus1=14_89 Bus2=14_93 phases=3 Linecode=4c_70 Length=1.5582 Units=m
New Line.LINE14_93 Bus1=14_90 Bus2=14_94 phases=3 Linecode=4c_.06 Length=1.3035 Units=m
New Line.LINE14_94 Bus1=14_91 Bus2=14_95 phases=3 Linecode=2c_16 Length=0.48043 Units=m
New Line.LINE14_95 Bus1=14_92 Bus2=14_96 phases=3 Linecode=4c_.35 Length=2.2599 Units=m
New Line.LINE14_96 Bus1=14_93 Bus2=14_97 phases=3 Linecode=4c_70 Length=2.356 Units=m
New Line.LINE14_97 Bus1=14_93 Bus2=14_98 phases=3 Linecode=2c_25 Length=2.8896 Units=m
New Line.LINE14_98 Bus1=14_94 Bus2=14_99 phases=3 Linecode=4c_.06 Length=1.3733 Units=m
New Line.LINE14_99 Bus1=14_95 Bus2=14_100 phases=3 Linecode=2c_16 Length=0.58945 Units=m
New Line.LINE14_100 Bus1=14_96 Bus2=14_101 phases=3 Linecode=4c_.35 Length=1.4452 Units=m
New Line.LINE14_101 Bus1=14_97 Bus2=14_102 phases=3 Linecode=4c_70 Length=1.8668 Units=m
New Line.LINE14_102 Bus1=14_98 Bus2=14_103 phases=3 Linecode=2c_25 Length=0.31716 Units=m
New Line.LINE14_103 Bus1=14_99 Bus2=14_104 phases=3 Linecode=4c_.06 Length=0.72147 Units=m
New Line.LINE14_104 Bus1=14_100 Bus2=14_105 phases=3 Linecode=2c_16 Length=0.72677 Units=m
New Line.LINE14_105 Bus1=14_101 Bus2=14_106 phases=3 Linecode=4c_.35 Length=2.1408 Units=m
New Line.LINE14_106 Bus1=14_101 Bus2=14_107 phases=3 Linecode=2c_16 Length=5.5115 Units=m
New Line.LINE14_107 Bus1=14_102 Bus2=14_108 phases=3 Linecode=4c_70 Length=1.6402 Units=m
New Line.LINE14_108 Bus1=14_103 Bus2=14_109 phases=3 Linecode=2c_25 Length=0.339 Units=m
New Line.LINE14_109 Bus1=14_104 Bus2=14_110 phases=3 Linecode=4c_.06 Length=0.4347 Units=m
New Line.LINE14_110 Bus1=14_105 Bus2=14_111 phases=3 Linecode=2c_16 Length=0.72051 Units=m
New Line.LINE14_111 Bus1=14_106 Bus2=14_112 phases=3 Linecode=4c_.35 Length=1.7872 Units=m
New Line.LINE14_112 Bus1=14_107 Bus2=14_113 phases=3 Linecode=2c_16 Length=0.28528 Units=m
New Line.LINE14_113 Bus1=14_108 Bus2=14_114 phases=3 Linecode=4c_70 Length=1.7394 Units=m
New Line.LINE14_114 Bus1=14_109 Bus2=14_115 phases=3 Linecode=2c_25 Length=0.50124 Units=m
New Line.LINE14_115 Bus1=14_110 Bus2=14_116 phases=3 Linecode=4c_.06 Length=20.6788 Units=m
New Line.LINE14_116 Bus1=14_111 Bus2=14_117 phases=3 Linecode=2c_16 Length=0.666 Units=m
New Line.LINE14_117 Bus1=14_112 Bus2=14_118 phases=3 Linecode=4c_.35 Length=2.4365 Units=m
New Line.LINE14_118 Bus1=14_113 Bus2=14_119 phases=3 Linecode=2c_16 Length=0.34038 Units=m
New Line.LINE14_119 Bus1=14_114 Bus2=14_120 phases=3 Linecode=4c_70 Length=2.1762 Units=m
New Line.LINE14_120 Bus1=14_115 Bus2=14_121 phases=3 Linecode=2c_25 Length=0.68044 Units=m
New Line.LINE14_121 Bus1=14_116 Bus2=14_122 phases=3 Linecode=2c_16 Length=8.4 Units=m
New Line.LINE14_122 Bus1=14_116 Bus2=14_123 phases=3 Linecode=4c_.06 Length=13.8706 Units=m
New Line.LINE14_123 Bus1=14_117 Bus2=14_124 phases=3 Linecode=2c_16 Length=0.58839 Units=m
New Line.LINE14_124 Bus1=14_118 Bus2=14_125 phases=3 Linecode=4c_.35 Length=2.3849 Units=m
New Line.LINE14_125 Bus1=14_119 Bus2=14_126 phases=3 Linecode=2c_16 Length=0.35591 Units=m
New Line.LINE14_126 Bus1=14_120 Bus2=14_127 phases=3 Linecode=4c_70 Length=2.9234 Units=m
New Line.LINE14_127 Bus1=14_121 Bus2=14_128 phases=3 Linecode=2c_25 Length=0.59963 Units=m
New Line.LINE14_128 Bus1=14_122 Bus2=14_129 phases=3 Linecode=2c_16 Length=0.51253 Units=m
New Line.LINE14_129 Bus1=14_123 Bus2=14_130 phases=3 Linecode=4c_.06 Length=4.1904 Units=m
New Line.LINE14_130 Bus1=14_124 Bus2=14_131 phases=3 Linecode=2c_16 Length=0.57484 Units=m
New Line.LINE14_131 Bus1=14_125 Bus2=14_132 phases=3 Linecode=4c_.35 Length=3.9289 Units=m
New Line.LINE14_132 Bus1=14_126 Bus2=14_133 phases=3 Linecode=2c_16 Length=0.33838 Units=m
New Line.LINE14_133 Bus1=14_127 Bus2=14_134 phases=3 Linecode=4c_70 Length=3.4323 Units=m
New Line.LINE14_134 Bus1=14_128 Bus2=14_135 phases=3 Linecode=2c_25 Length=0.7399 Units=m
New Line.LINE14_135 Bus1=14_129 Bus2=14_136 phases=3 Linecode=2c_16 Length=0.34648 Units=m
New Line.LINE14_136 Bus1=14_130 Bus2=14_137 phases=3 Linecode=4c_.06 Length=1.8414 Units=m
New Line.LINE14_137 Bus1=14_131 Bus2=14_138 phases=3 Linecode=2c_16 Length=0.373 Units=m
New Line.LINE14_138 Bus1=14_132 Bus2=14_139 phases=3 Linecode=4c_.35 Length=3.8857 Units=m
New Line.LINE14_139 Bus1=14_133 Bus2=14_140 phases=3 Linecode=2c_16 Length=0.37125 Units=m
New Line.LINE14_140 Bus1=14_134 Bus2=14_141 phases=3 Linecode=4c_70 Length=2.0973 Units=m
New Line.LINE14_141 Bus1=14_135 Bus2=14_142 phases=3 Linecode=2c_25 Length=0.425 Units=m
New Line.LINE14_142 Bus1=14_136 Bus2=14_143 phases=3 Linecode=2c_16 Length=0.52154 Units=m
New Line.LINE14_143 Bus1=14_137 Bus2=14_144 phases=3 Linecode=4c_.06 Length=1.3287 Units=m
New Line.LINE14_144 Bus1=14_138 Bus2=14_145 phases=3 Linecode=2c_16 Length=0.32014 Units=m
New Line.LINE14_145 Bus1=14_139 Bus2=14_146 phases=3 Linecode=4c_.35 Length=0.81707 Units=m
New Line.LINE14_146 Bus1=14_139 Bus2=14_147 phases=3 Linecode=2c_16 Length=12.2672 Units=m
New Line.LINE14_147 Bus1=14_140 Bus2=14_148 phases=3 Linecode=2c_16 Length=1.8341 Units=m
New Line.LINE14_148 Bus1=14_141 Bus2=14_149 phases=3 Linecode=4c_70 Length=2.7773 Units=m
New Line.LINE14_149 Bus1=14_142 Bus2=14_150 phases=3 Linecode=2c_25 Length=0.48425 Units=m
New Line.LINE14_150 Bus1=14_143 Bus2=14_151 phases=3 Linecode=2c_16 Length=0.38347 Units=m
New Line.LINE14_151 Bus1=14_144 Bus2=14_152 phases=3 Linecode=4c_.06 Length=0.80288 Units=m
New Line.LINE14_152 Bus1=14_145 Bus2=14_153 phases=3 Linecode=2c_16 Length=0.24151 Units=m
New Line.LINE14_153 Bus1=14_146 Bus2=14_154 phases=3 Linecode=4c_.35 Length=3.0035 Units=m
New Line.LINE14_154 Bus1=14_147 Bus2=14_155 phases=3 Linecode=2c_16 Length=1.076 Units=m
New Line.LINE14_155 Bus1=14_147 Bus2=14_156 phases=3 Linecode=2c_16 Length=1.5367 Units=m
New Line.LINE14_156 Bus1=14_148 Bus2=14_157 phases=3 Linecode=2c_16 Length=0.38908 Units=m
New Line.LINE14_157 Bus1=14_149 Bus2=14_158 phases=3 Linecode=4c_70 Length=2.2578 Units=m
New Line.LINE14_158 Bus1=14_149 Bus2=14_159 phases=3 Linecode=2c_16 Length=11.3628 Units=m
New Line.LINE14_159 Bus1=14_150 Bus2=14_160 phases=3 Linecode=2c_25 Length=3.2806 Units=m
New Line.LINE14_160 Bus1=14_151 Bus2=14_161 phases=3 Linecode=2c_16 Length=1.1332 Units=m
New Line.LINE14_161 Bus1=14_152 Bus2=14_162 phases=3 Linecode=4c_.06 Length=1.3102 Units=m
New Line.LINE14_162 Bus1=14_153 Bus2=14_163 phases=3 Linecode=2c_16 Length=0.36187 Units=m
New Line.LINE14_163 Bus1=14_153 Bus2=14_164 phases=3 Linecode=2c_16 Length=0.083096 Units=m
New Line.LINE14_164 Bus1=14_154 Bus2=14_165 phases=3 Linecode=4c_.35 Length=1.9437 Units=m
New Line.LINE14_165 Bus1=14_155 Bus2=14_166 phases=3 Linecode=2c_16 Length=0.10139 Units=m
New Line.LINE14_166 Bus1=14_156 Bus2=14_167 phases=3 Linecode=2c_16 Length=4.6741 Units=m
New Line.LINE14_167 Bus1=14_157 Bus2=14_168 phases=3 Linecode=2c_16 Length=0.66764 Units=m
New Line.LINE14_168 Bus1=14_158 Bus2=14_169 phases=3 Linecode=4c_70 Length=4.6497 Units=m
New Line.LINE14_169 Bus1=14_159 Bus2=14_170 phases=3 Linecode=2c_16 Length=2.5372 Units=m
New Line.LINE14_170 Bus1=14_159 Bus2=14_171 phases=3 Linecode=2c_16 Length=2.8591 Units=m
New Line.LINE14_171 Bus1=14_160 Bus2=14_172 phases=3 Linecode=2c_25 Length=1.9491 Units=m
New Line.LINE14_172 Bus1=14_160 Bus2=14_173 phases=3 Linecode=2c_25 Length=3.328 Units=m
New Line.LINE14_173 Bus1=14_161 Bus2=14_174 phases=3 Linecode=2c_16 Length=4.509 Units=m
New Line.LINE14_174 Bus1=14_162 Bus2=14_175 phases=3 Linecode=2c_16 Length=10.5294 Units=m
New Line.LINE14_175 Bus1=14_162 Bus2=14_176 phases=3 Linecode=4c_.06 Length=1.4731 Units=m
New Line.LINE14_176 Bus1=14_163 Bus2=14_177 phases=3 Linecode=2c_16 Length=1.3478 Units=m
New Line.LINE14_177 Bus1=14_164 Bus2=14_178 phases=3 Linecode=2c_16 Length=0.19699 Units=m
New Line.LINE14_178 Bus1=14_165 Bus2=14_179 phases=3 Linecode=4c_.35 Length=2.6592 Units=m
New Line.LINE14_179 Bus1=14_166 Bus2=14_180 phases=3 Linecode=2c_16 Length=0.089739 Units=m
New Line.LINE14_180 Bus1=14_168 Bus2=14_181 phases=3 Linecode=2c_16 Length=3.1183 Units=m
New Line.LINE14_181 Bus1=14_169 Bus2=14_182 phases=3 Linecode=4c_70 Length=2.1345 Units=m
New Line.LINE14_182 Bus1=14_169 Bus2=14_183 phases=3 Linecode=4c_70 Length=0.1512 Units=m
New Line.LINE14_183 Bus1=14_170 Bus2=14_184 phases=3 Linecode=2c_16 Length=2.42 Units=m
New Line.LINE14_184 Bus1=14_171 Bus2=14_185 phases=3 Linecode=2c_16 Length=0.18783 Units=m
New Line.LINE14_185 Bus1=14_172 Bus2=14_186 phases=3 Linecode=2c_25 Length=0.21547 Units=m
New Line.LINE14_186 Bus1=14_173 Bus2=14_187 phases=3 Linecode=2c_25 Length=0.21547 Units=m
New Line.LINE14_187 Bus1=14_175 Bus2=14_188 phases=3 Linecode=2c_16 Length=0.11201 Units=m
New Line.LINE14_188 Bus1=14_176 Bus2=14_189 phases=3 Linecode=4c_.06 Length=1.9524 Units=m
New Line.LINE14_189 Bus1=14_177 Bus2=14_190 phases=3 Linecode=2c_16 Length=4.1351 Units=m
New Line.LINE14_190 Bus1=14_178 Bus2=14_191 phases=3 Linecode=2c_16 Length=0.14042 Units=m
New Line.LINE14_191 Bus1=14_179 Bus2=14_192 phases=3 Linecode=4c_.35 Length=2.2367 Units=m
New Line.LINE14_192 Bus1=14_180 Bus2=14_193 phases=3 Linecode=2c_16 Length=0.14017 Units=m
New Line.LINE14_193 Bus1=14_181 Bus2=14_194 phases=3 Linecode=2c_16 Length=1.1957 Units=m
New Line.LINE14_194 Bus1=14_181 Bus2=14_195 phases=3 Linecode=2c_16 Length=0.78579 Units=m
New Line.LINE14_195 Bus1=14_182 Bus2=14_196 phases=3 Linecode=4c_70 Length=1.9445 Units=m
New Line.LINE14_196 Bus1=14_183 Bus2=14_197 phases=3 Linecode=4c_70 Length=0.10096 Units=m
New Line.LINE14_197 Bus1=14_185 Bus2=14_198 phases=3 Linecode=2c_16 Length=0.32004 Units=m
New Line.LINE14_198 Bus1=14_186 Bus2=14_199 phases=3 Linecode=2c_25 Length=0.22798 Units=m
New Line.LINE14_199 Bus1=14_187 Bus2=14_200 phases=3 Linecode=2c_25 Length=0.1414 Units=m
New Line.LINE14_200 Bus1=14_188 Bus2=14_201 phases=3 Linecode=2c_16 Length=0.091214 Units=m
New Line.LINE14_201 Bus1=14_189 Bus2=14_202 phases=3 Linecode=4c_.06 Length=2.0154 Units=m
New Line.LINE14_202 Bus1=14_191 Bus2=14_203 phases=3 Linecode=2c_16 Length=0.16926 Units=m
New Line.LINE14_203 Bus1=14_192 Bus2=14_204 phases=3 Linecode=4c_.35 Length=2.2392 Units=m
New Line.LINE14_204 Bus1=14_193 Bus2=14_205 phases=3 Linecode=2c_16 Length=0.13909 Units=m
New Line.LINE14_205 Bus1=14_194 Bus2=14_206 phases=3 Linecode=2c_16 Length=4.9022 Units=m
New Line.LINE14_206 Bus1=14_195 Bus2=14_207 phases=3 Linecode=2c_16 Length=0.18445 Units=m
New Line.LINE14_207 Bus1=14_196 Bus2=14_208 phases=3 Linecode=4c_70 Length=1.8605 Units=m
New Line.LINE14_208 Bus1=14_197 Bus2=14_209 phases=3 Linecode=4c_70 Length=0.12522 Units=m
New Line.LINE14_209 Bus1=14_198 Bus2=14_210 phases=3 Linecode=2c_16 Length=0.19799 Units=m
New Line.LINE14_210 Bus1=14_199 Bus2=14_211 phases=3 Linecode=2c_25 Length=0.17229 Units=m
New Line.LINE14_211 Bus1=14_200 Bus2=14_212 phases=3 Linecode=2c_25 Length=0.20604 Units=m
New Line.LINE14_212 Bus1=14_201 Bus2=14_213 phases=3 Linecode=2c_16 Length=0.081271 Units=m
New Line.LINE14_213 Bus1=14_202 Bus2=14_214 phases=3 Linecode=4c_.06 Length=2.7625 Units=m
New Line.LINE14_214 Bus1=14_203 Bus2=14_215 phases=3 Linecode=2c_16 Length=0.16016 Units=m
New Line.LINE14_215 Bus1=14_204 Bus2=14_216 phases=3 Linecode=4c_.35 Length=0.87991 Units=m
New Line.LINE14_216 Bus1=14_205 Bus2=14_217 phases=3 Linecode=2c_16 Length=0.089554 Units=m
New Line.LINE14_217 Bus1=14_207 Bus2=14_218 phases=3 Linecode=2c_16 Length=0.15251 Units=m
New Line.LINE14_218 Bus1=14_208 Bus2=14_219 phases=3 Linecode=4c_70 Length=1.729 Units=m
New Line.LINE14_219 Bus1=14_209 Bus2=14_220 phases=3 Linecode=4c_70 Length=0.168 Units=m
New Line.LINE14_220 Bus1=14_210 Bus2=14_221 phases=3 Linecode=2c_16 Length=0.33716 Units=m
New Line.LINE14_221 Bus1=14_211 Bus2=14_222 phases=3 Linecode=2c_25 Length=0.254 Units=m
New Line.LINE14_222 Bus1=14_212 Bus2=14_223 phases=3 Linecode=2c_25 Length=0.31325 Units=m
New Line.LINE14_223 Bus1=14_213 Bus2=14_224 phases=3 Linecode=2c_16 Length=0.095336 Units=m
New Line.LINE14_224 Bus1=14_214 Bus2=14_225 phases=3 Linecode=4c_.06 Length=2.5319 Units=m
New Line.LINE14_225 Bus1=14_215 Bus2=14_226 phases=3 Linecode=2c_16 Length=0.31508 Units=m
New Line.LINE14_226 Bus1=14_216 Bus2=14_227 phases=3 Linecode=4c_.35 Length=0.93628 Units=m
New Line.LINE14_227 Bus1=14_216 Bus2=14_228 phases=3 Linecode=2c_16 Length=6.6322 Units=m
New Line.LINE14_228 Bus1=14_217 Bus2=14_229 phases=3 Linecode=2c_16 Length=0.097637 Units=m
New Line.LINE14_229 Bus1=14_218 Bus2=14_230 phases=3 Linecode=2c_16 Length=0.19782 Units=m
New Line.LINE14_230 Bus1=14_219 Bus2=14_231 phases=3 Linecode=4c_70 Length=1.2809 Units=m
New Line.LINE14_231 Bus1=14_220 Bus2=14_232 phases=3 Linecode=4c_70 Length=0.39697 Units=m
New Line.LINE14_232 Bus1=14_221 Bus2=14_233 phases=3 Linecode=2c_16 Length=0.81633 Units=m
New Line.LINE14_233 Bus1=14_222 Bus2=14_234 phases=3 Linecode=2c_25 Length=1.3862 Units=m
New Line.LINE14_234 Bus1=14_223 Bus2=14_235 phases=3 Linecode=2c_25 Length=0.90565 Units=m
New Line.LINE14_235 Bus1=14_224 Bus2=14_236 phases=3 Linecode=2c_16 Length=0.056 Units=m
New Line.LINE14_236 Bus1=14_225 Bus2=14_237 phases=3 Linecode=2c_16 Length=10.1072 Units=m
New Line.LINE14_237 Bus1=14_225 Bus2=14_238 phases=3 Linecode=4c_.06 Length=2.3584 Units=m
New Line.LINE14_238 Bus1=14_226 Bus2=14_239 phases=3 Linecode=2c_16 Length=0.12366 Units=m
New Line.LINE14_239 Bus1=14_228 Bus2=14_240 phases=3 Linecode=2c_16 Length=0.37459 Units=m
New Line.LINE14_240 Bus1=14_229 Bus2=14_241 phases=3 Linecode=2c_16 Length=0.10621 Units=m
New Line.LINE14_241 Bus1=14_230 Bus2=14_242 phases=3 Linecode=2c_16 Length=0.22144 Units=m
New Line.LINE14_242 Bus1=14_231 Bus2=14_243 phases=3 Linecode=4c_70 Length=3.6047 Units=m
New Line.LINE14_243 Bus1=14_231 Bus2=14_244 phases=3 Linecode=2c_16 Length=5.9289 Units=m
New Line.LINE14_244 Bus1=14_232 Bus2=14_245 phases=3 Linecode=4c_70 Length=0.64643 Units=m
New Line.LINE14_245 Bus1=14_233 Bus2=14_246 phases=3 Linecode=2c_16 Length=2.1893 Units=m
New Line.LINE14_246 Bus1=14_234 Bus2=14_247 phases=3 Linecode=2c_25 Length=4.6779 Units=m
New Line.LINE14_247 Bus1=14_234 Bus2=14_248 phases=3 Linecode=2c_25 Length=4.6779 Units=m
New Line.LINE14_248 Bus1=14_235 Bus2=14_249 phases=3 Linecode=2c_25 Length=4.4044 Units=m
New Line.LINE14_249 Bus1=14_236 Bus2=14_250 phases=3 Linecode=2c_16 Length=0.090139 Units=m
New Line.LINE14_250 Bus1=14_237 Bus2=14_251 phases=3 Linecode=2c_16 Length=0.67938 Units=m
New Line.LINE14_251 Bus1=14_238 Bus2=14_252 phases=3 Linecode=4c_.06 Length=0.25217 Units=m
New Line.LINE14_252 Bus1=14_238 Bus2=14_253 phases=3 Linecode=4c_.06 Length=2.9266 Units=m
New Line.LINE14_253 Bus1=14_239 Bus2=14_254 phases=3 Linecode=2c_16 Length=0.21227 Units=m
New Line.LINE14_254 Bus1=14_240 Bus2=14_255 phases=3 Linecode=2c_16 Length=0.2864 Units=m
New Line.LINE14_255 Bus1=14_241 Bus2=14_256 phases=3 Linecode=2c_16 Length=0.11474 Units=m
New Line.LINE14_256 Bus1=14_242 Bus2=14_257 phases=3 Linecode=2c_16 Length=0.22466 Units=m
New Line.LINE14_257 Bus1=14_243 Bus2=14_258 phases=3 Linecode=4c_70 Length=0.33284 Units=m
New Line.LINE14_258 Bus1=14_244 Bus2=14_259 phases=3 Linecode=2c_16 Length=0.953 Units=m
New Line.LINE14_259 Bus1=14_245 Bus2=14_260 phases=3 Linecode=4c_70 Length=0.28 Units=m
New Line.LINE14_260 Bus1=14_250 Bus2=14_261 phases=3 Linecode=2c_16 Length=0.054918 Units=m
New Line.LINE14_261 Bus1=14_251 Bus2=14_262 phases=3 Linecode=2c_16 Length=0.10335 Units=m
New Line.LINE14_262 Bus1=14_252 Bus2=14_263 phases=3 Linecode=4c_.06 Length=0.15112 Units=m
New Line.LINE14_263 Bus1=14_253 Bus2=14_264 phases=3 Linecode=4c_.06 Length=2.961 Units=m
New Line.LINE14_264 Bus1=14_254 Bus2=14_265 phases=3 Linecode=2c_16 Length=0.1236 Units=m
New Line.LINE14_265 Bus1=14_255 Bus2=14_266 phases=3 Linecode=2c_16 Length=0.26559 Units=m
New Line.LINE14_266 Bus1=14_256 Bus2=14_267 phases=3 Linecode=2c_16 Length=0.83139 Units=m
New Line.LINE14_267 Bus1=14_257 Bus2=14_268 phases=3 Linecode=2c_16 Length=0.33262 Units=m
New Line.LINE14_268 Bus1=14_258 Bus2=14_269 phases=3 Linecode=2c_.0225 Length=14.8244 Units=m
New Line.LINE14_269 Bus1=14_258 Bus2=14_270 phases=3 Linecode=2c_.0225 Length=14.8244 Units=m
New Line.LINE14_270 Bus1=14_258 Bus2=14_271 phases=3 Linecode=4c_70 Length=2.0384 Units=m
New Line.LINE14_271 Bus1=14_259 Bus2=14_272 phases=3 Linecode=2c_16 Length=0.70876 Units=m
New Line.LINE14_272 Bus1=14_260 Bus2=14_273 phases=3 Linecode=4c_70 Length=0.19799 Units=m
New Line.LINE14_273 Bus1=14_261 Bus2=14_274 phases=3 Linecode=2c_16 Length=1.5112 Units=m
New Line.LINE14_274 Bus1=14_262 Bus2=14_275 phases=3 Linecode=2c_16 Length=0.086925 Units=m
New Line.LINE14_275 Bus1=14_263 Bus2=14_276 phases=3 Linecode=4c_.06 Length=0.17043 Units=m
New Line.LINE14_276 Bus1=14_264 Bus2=14_277 phases=3 Linecode=4c_.06 Length=3.7071 Units=m
New Line.LINE14_277 Bus1=14_265 Bus2=14_278 phases=3 Linecode=2c_16 Length=1.2252 Units=m
New Line.LINE14_278 Bus1=14_266 Bus2=14_279 phases=3 Linecode=2c_16 Length=0.35052 Units=m
New Line.LINE14_279 Bus1=14_267 Bus2=14_280 phases=3 Linecode=2c_16 Length=6.1677 Units=m
New Line.LINE14_280 Bus1=14_268 Bus2=14_281 phases=3 Linecode=2c_16 Length=0.74421 Units=m
New Line.LINE14_281 Bus1=14_269 Bus2=14_282 phases=3 Linecode=2c_.0225 Length=3.1084 Units=m
New Line.LINE14_282 Bus1=14_269 Bus2=14_283 phases=3 Linecode=2c_.0225 Length=3.1084 Units=m
New Line.LINE14_283 Bus1=14_271 Bus2=14_284 phases=3 Linecode=4c_70 Length=1.4584 Units=m
New Line.LINE14_284 Bus1=14_272 Bus2=14_285 phases=3 Linecode=2c_16 Length=0.70525 Units=m
New Line.LINE14_285 Bus1=14_273 Bus2=14_286 phases=3 Linecode=4c_70 Length=0.20274 Units=m
New Line.LINE14_286 Bus1=14_274 Bus2=14_287 phases=3 Linecode=2c_16 Length=6.2806 Units=m
New Line.LINE14_287 Bus1=14_274 Bus2=14_288 phases=3 Linecode=2c_16 Length=0.65928 Units=m
New Line.LINE14_288 Bus1=14_275 Bus2=14_289 phases=3 Linecode=2c_16 Length=1.2352 Units=m
New Line.LINE14_289 Bus1=14_276 Bus2=14_290 phases=3 Linecode=4c_.06 Length=0.24413 Units=m
New Line.LINE14_290 Bus1=14_277 Bus2=14_291 phases=3 Linecode=4c_.06 Length=4.1278 Units=m
New Line.LINE14_291 Bus1=14_278 Bus2=14_292 phases=3 Linecode=2c_16 Length=6.1191 Units=m
New Line.LINE14_292 Bus1=14_279 Bus2=14_293 phases=3 Linecode=2c_16 Length=2.3296 Units=m
New Line.LINE14_293 Bus1=14_281 Bus2=14_294 phases=3 Linecode=2c_16 Length=5.4065 Units=m
New Line.LINE14_294 Bus1=14_282 Bus2=14_295 phases=3 Linecode=2c_.0225 Length=0.34437 Units=m
New Line.LINE14_295 Bus1=14_282 Bus2=14_296 phases=3 Linecode=2c_.0225 Length=0.34437 Units=m
New Line.LINE14_296 Bus1=14_284 Bus2=14_297 phases=3 Linecode=2c_.0225 Length=16.6285 Units=m
New Line.LINE14_297 Bus1=14_284 Bus2=14_298 phases=3 Linecode=2c_.0225 Length=16.6285 Units=m
New Line.LINE14_298 Bus1=14_284 Bus2=14_299 phases=3 Linecode=4c_70 Length=2.3625 Units=m
New Line.LINE14_299 Bus1=14_285 Bus2=14_300 phases=3 Linecode=2c_16 Length=1.9749 Units=m
New Line.LINE14_300 Bus1=14_286 Bus2=14_301 phases=3 Linecode=4c_70 Length=0.24087 Units=m
New Line.LINE14_301 Bus1=14_287 Bus2=14_302 phases=3 Linecode=2c_16 Length=8.3858 Units=m
New Line.LINE14_302 Bus1=14_287 Bus2=14_303 phases=3 Linecode=2c_16 Length=3.0457 Units=m
New Line.LINE14_303 Bus1=14_289 Bus2=14_304 phases=3 Linecode=2c_16 Length=0.17593 Units=m
New Line.LINE14_304 Bus1=14_290 Bus2=14_305 phases=3 Linecode=4c_.06 Length=0.20185 Units=m
New Line.LINE14_305 Bus1=14_291 Bus2=14_306 phases=3 Linecode=2c_16 Length=9.593 Units=m
New Line.LINE14_306 Bus1=14_291 Bus2=14_307 phases=3 Linecode=4c_.06 Length=2.5101 Units=m
New Line.LINE14_307 Bus1=14_293 Bus2=14_308 phases=3 Linecode=2c_16 Length=0.18926 Units=m
New Line.LINE14_308 Bus1=14_295 Bus2=14_309 phases=3 Linecode=2c_.0225 Length=4.6464 Units=m
New Line.LINE14_309 Bus1=14_295 Bus2=14_310 phases=3 Linecode=2c_.0225 Length=4.6464 Units=m
New Line.LINE14_310 Bus1=14_297 Bus2=14_311 phases=3 Linecode=2c_.0225 Length=3.9669 Units=m
New Line.LINE14_311 Bus1=14_299 Bus2=14_312 phases=3 Linecode=4c_.1 Length=5.5191 Units=m
New Line.LINE14_312 Bus1=14_299 Bus2=14_313 phases=3 Linecode=4c_.1 Length=5.5191 Units=m
New Line.LINE14_313 Bus1=14_300 Bus2=14_314 phases=3 Linecode=2c_16 Length=1.3077 Units=m
New Line.LINE14_314 Bus1=14_301 Bus2=14_315 phases=3 Linecode=4c_70 Length=0.248 Units=m
New Line.LINE14_315 Bus1=14_304 Bus2=14_316 phases=3 Linecode=2c_16 Length=0.156 Units=m
New Line.LINE14_316 Bus1=14_305 Bus2=14_317 phases=3 Linecode=4c_.06 Length=0.16121 Units=m
New Line.LINE14_317 Bus1=14_306 Bus2=14_318 phases=3 Linecode=2c_16 Length=0.41189 Units=m
New Line.LINE14_318 Bus1=14_307 Bus2=14_319 phases=3 Linecode=4c_.06 Length=2.8246 Units=m
New Line.LINE14_319 Bus1=14_308 Bus2=14_320 phases=3 Linecode=2c_16 Length=0.2188 Units=m
New Line.LINE14_320 Bus1=14_309 Bus2=14_321 phases=3 Linecode=2c_.0225 Length=0.35014 Units=m
New Line.LINE14_321 Bus1=14_309 Bus2=14_322 phases=3 Linecode=2c_.0225 Length=0.35014 Units=m
New Line.LINE14_322 Bus1=14_312 Bus2=14_323 phases=3 Linecode=4c_.1 Length=1.1295 Units=m
New Line.LINE14_323 Bus1=14_312 Bus2=14_324 phases=3 Linecode=4c_.1 Length=0.11044 Units=m
New Line.LINE14_324 Bus1=14_312 Bus2=14_325 phases=3 Linecode=4c_.1 Length=1.1295 Units=m
New Line.LINE14_325 Bus1=14_314 Bus2=14_326 phases=3 Linecode=2c_16 Length=0.99746 Units=m
New Line.LINE14_326 Bus1=14_315 Bus2=14_327 phases=3 Linecode=4c_70 Length=0.15582 Units=m
New Line.LINE14_327 Bus1=14_316 Bus2=14_328 phases=3 Linecode=2c_16 Length=0.11853 Units=m
New Line.LINE14_328 Bus1=14_317 Bus2=14_329 phases=3 Linecode=4c_.06 Length=0.21427 Units=m
New Line.LINE14_329 Bus1=14_318 Bus2=14_330 phases=3 Linecode=2c_16 Length=0.21745 Units=m
New Line.LINE14_330 Bus1=14_319 Bus2=14_331 phases=3 Linecode=4c_.06 Length=2.5203 Units=m
New Line.LINE14_331 Bus1=14_320 Bus2=14_332 phases=3 Linecode=2c_16 Length=0.19741 Units=m
New Line.LINE14_332 Bus1=14_321 Bus2=14_333 phases=3 Linecode=2c_.0225 Length=0.22542 Units=m
New Line.LINE14_333 Bus1=14_321 Bus2=14_334 phases=3 Linecode=2c_.0225 Length=0.22542 Units=m
New Line.LINE14_334 Bus1=14_323 Bus2=14_335 phases=3 Linecode=4c_.1 Length=3.8224 Units=m