New Line.LINE14_25 Bus1=14_25 Bus2=14_26 phases=3 Linecode=2c_16 Length=10.1369 Units=m
New Line.LINE14_51 Bus1=14_47 Bus2=14_52 phases=3 Linecode=2c_16 Length=5.4578 Units=m
New Line.LINE14_52 Bus1=14_47 Bus2=14_53 phases=3 Linecode=2c_16 Length=5.4578 Units=m
New Line.LINE14_73 Bus1=14_70 Bus2=14_74 phases=3 Linecode=2c_16 Length=7.0789 Units=m
New Line.LINE14_74 Bus1=14_70 Bus2=14_75 phases=3 Linecode=2c_16 Length=7.0789 Units=m
New Line.LINE14_146 Bus1=14_139 Bus2=14_147 phases=3 Linecode=2c_16 Length=12.2672 Units=m
New Line.LINE14_158 Bus1=14_149 Bus2=14_159 phases=3 Linecode=2c_16 Length=11.3628 Units=m
New Line.LINE14_246 Bus1=14_234 Bus2=14_247 phases=3 Linecode=2c_25 Length=4.6779 Units=m
New Line.LINE14_247 Bus1=14_234 Bus2=14_248 phases=3 Linecode=2c_25 Length=4.6779 Units=m
New Line.LINE14_286 Bus1=14_274 Bus2=14_287 phases=3 Linecode=2c_16 Length=6.2806 Units=m
New Line.LINE14_287 Bus1=14_274 Bus2=14_288 phases=3 Linecode=2c_16 Length=0.65928 Units=m
New Line.LINE14_298 Bus1=14_284 Bus2=14_299 phases=3 Linecode=4c_70 Length=2.3625 Units=m
New Line.LINE14_301 Bus1=14_287 Bus2=14_302 phases=3 Linecode=2c_16 Length=8.3858 Units=m
New Line.LINE14_302 Bus1=14_287 Bus2=14_303 phases=3 Linecode=2c_16 Length=3.0457 Units=m
New Line.LINE14_348 Bus1=14_335 Bus2=14_349 phases=3 Linecode=4c_.1 Length=3.0977 Units=m
New Line.LINE14_383 Bus1=14_372 Bus2=14_384 phases=3 Linecode=2c_16 Length=10.1257 Units=m
New Line.LINE14_396 Bus1=14_382 Bus2=14_397 phases=3 Linecode=2c_16 Length=4.8984 Units=m
New Line.LINE14_446 Bus1=14_434 Bus2=14_447 phases=3 Linecode=2c_.0225 Length=4.5589 Units=m
New Line.LINE14_447 Bus1=14_434 Bus2=14_448 phases=3 Linecode=2c_.0225 Length=4.5589 Units=m
New Line.LINE14_515 Bus1=14_509 Bus2=14_516 phases=3 Linecode=4c_.1 Length=2.6435 Units=m
New Line.LINE14_589 Bus1=14_584 Bus2=14_590 phases=3 Linecode=2c_.0225 Length=5.4565 Units=m
New Line.LINE14_590 Bus1=14_584 Bus2=14_591 phases=3 Linecode=2c_.0225 Length=5.4565 Units=m
New Line.LINE14_644 Bus1=14_636 Bus2=14_645 phases=3 Linecode=2c_16 Length=5.1742 Units=m
New Line.LINE14_840 Bus1=14_834 Bus2=14_841 phases=3 Linecode=4c_.1 Length=7.903 Units=m
New Line.LINE14_880 Bus1=14_875 Bus2=14_881 phases=3 Linecode=4c_.1 Length=6.8244 Units=m
New Line.LINE14_886 Bus1=14_881 Bus2=14_887 phases=3 Linecode=4c_.1 Length=7.2792 Units=m
New Line.LINE14_1069 Bus1=14_1065 Bus2=14_1070 phases=3 Linecode=4c_.1 Length=9.7646 Units=m
New Line.LINE14_1075 Bus1=14_1070 Bus2=14_1076 phases=3 Linecode=4c_.1 Length=5.8051 Units=m
New Line.LINE14_1156 Bus1=14_1156 Bus2=14_1157 phases=3 Linecode=4c_.1 Length=2.8873 Units=m
New Line.LINE14_1186 Bus1=14_1184 Bus2=14_1187 phases=3 Linecode=2c_.022 Length=8.2247 Units=m
New Line.LINE14_Cmpd_0 Bus1=14_80 Bus2=14_116 phases=3 Linecode=4c_.06 Length=26.91034 Units=m
New Line.LINE14_Cmpd_1 Bus1=14_1 Bus2=14_25 phases=3 Linecode=4c_70 Length=54.636444 Units=m
New Line.LINE14_Cmpd_2 Bus1=14_349 Bus2=14_492 phases=3 Linecode=2c_.0225 Length=19.76837 Units=m
New Line.LINE14_Cmpd_3 Bus1=14_84 Bus2=14_101 phases=3 Linecode=4c_.35 Length=15.5199 Units=m
New Line.LINE14_Cmpd_4 Bus1=14_44 Bus2=14_84 phases=3 Linecode=4c_.35 Length=35.85086 Units=m
New Line.LINE14_Cmpd_5 Bus1=14_225 Bus2=14_382 phases=3 Linecode=2c_16 Length=14.505165 Units=m
New Line.LINE14_Cmpd_6 Bus1=14_372 Bus2=14_585 phases=3 Linecode=4c_.06 Length=25.655544 Units=m
New Line.LINE14_Cmpd_7 Bus1=14_834 Bus2=14_886 phases=3 Linecode=2c_.0225 Length=17.78346 Units=m
New Line.LINE14_Cmpd_8 Bus1=14_162 Bus2=14_274 phases=3 Linecode=2c_16 Length=12.621488 Units=m
New Line.LINE14_Cmpd_9 Bus1=14_516 Bus2=14_549 phases=3 Linecode=4c_.1 Length=10.2965 Units=m
New Line.LINE14_Cmpd_10 Bus1=14_216 Bus2=14_468 phases=3 Linecode=2c_16 Length=20.147936 Units=m
New Line.LINE14_Cmpd_11 Bus1=14_977 Bus2=14_1036 phases=3 Linecode=4c_.06 Length=14.39261 Units=m
New Line.LINE14_Cmpd_12 Bus1=14_147 Bus2=14_280 phases=3 Linecode=2c_16 Length=8.95362 Units=m
New Line.LINE14_Cmpd_13 Bus1=14_727 Bus2=14_798 phases=3 Linecode=4c_.06 Length=13.72713 Units=m
New Line.LINE14_Cmpd_14 Bus1=14_349 Bus2=14_459 phases=3 Linecode=4c_.1 Length=15.4385 Units=m
New Line.LINE14_Cmpd_15 Bus1=14_84 Bus2=14_153 phases=3 Linecode=2c_16 Length=10.45979 Units=m
New Line.LINE14_Cmpd_16 Bus1=14_1157 Bus2=14_1166 phases=3 Linecode=4c_.1 Length=10.77682 Units=m
New Line.LINE14_Cmpd_17 Bus1=14_25 Bus2=14_37 phases=3 Linecode=4c_70 Length=19.8543 Units=m
New Line.LINE14_Cmpd_18 Bus1=14_739 Bus2=14_831 phases=3 Linecode=2c_16 Length=14.50815 Units=m
New Line.LINE14_Cmpd_19 Bus1=14_938 Bus2=14_1050 phases=3 Linecode=2c_.0225 Length=17.67265 Units=m
New Line.LINE14_Cmpd_20 Bus1=14_459 Bus2=14_509 phases=3 Linecode=4c_.1 Length=14.4004 Units=m
New Line.LINE14_Cmpd_21 Bus1=14_1100 Bus2=14_1144 phases=3 Linecode=2c_.0225 Length=13.15101 Units=m
New Line.LINE14_Cmpd_22 Bus1=14_549 Bus2=14_799 phases=3 Linecode=4c_.1 Length=40.1683 Units=m
New Line.LINE14_Cmpd_23 Bus1=14_160 Bus2=14_249 phases=3 Linecode=2c_25 Length=9.51421 Units=m
New Line.LINE14_Cmpd_24 Bus1=14_897 Bus2=14_945 phases=3 Linecode=2c_16 Length=3.762047 Units=m
New Line.LINE14_Cmpd_25 Bus1=14_26 Bus2=14_47 phases=3 Linecode=2c_16 Length=3.24638 Units=m
New Line.LINE14_Cmpd_26 Bus1=14_159 Bus2=14_246 phases=3 Linecode=2c_16 Length=6.90775 Units=m
New Line.LINE14_Cmpd_27 Bus1=14_44 Bus2=14_80 phases=3 Linecode=4c_70 Length=12.70951 Units=m
New Line.LINE14_Cmpd_28 Bus1=14_116 Bus2=14_162 phases=3 Linecode=4c_.06 Length=23.34418 Units=m
New Line.LINE14_Cmpd_29 Bus1=14_384 Bus2=14_522 phases=3 Linecode=2c_16 Length=4.726182 Units=m
New Line.LINE14_Cmpd_30 Bus1=14_1210 Bus2=14_1221 phases=3 Linecode=4c_.1 Length=7.89909 Units=m
New Line.LINE14_Cmpd_31 Bus1=14_977 Bus2=14_1065 phases=3 Linecode=4c_.1 Length=20.67172 Units=m
New Line.LINE14_Cmpd_32 Bus1=14_380 Bus2=14_411 phases=3 Linecode=2c_16 Length=4.5837 Units=m
New Line.LINE14_Cmpd_33 Bus1=14_37 Bus2=14_50 phases=3 Linecode=2c_16 Length=8.62003 Units=m
New Line.LINE14_Cmpd_34 Bus1=14_636 Bus2=14_783 phases=3 Linecode=2c_16 Length=12.11021 Units=m
New Line.LINE14_Cmpd_35 Bus1=14_1221 Bus2=14_1230 phases=3 Linecode=2c_.0225 Length=16.58105 Units=m
New Line.LINE14_Cmpd_36 Bus1=14_80 Bus2=14_93 phases=3 Linecode=4c_70 Length=11.54 Units=m
New Line.LINE14_Cmpd_37 Bus1=14_632 Bus2=14_687 phases=3 Linecode=4c_.06 Length=4.78075 Units=m
New Line.LINE14_Cmpd_38 Bus1=14_739 Bus2=14_802 phases=3 Linecode=2c_16 Length=3.24856 Units=m
New Line.LINE14_Cmpd_39 Bus1=14_335 Bus2=14_366 phases=3 Linecode=2c_.0225 Length=15.8841 Units=m
New Line.LINE14_Cmpd_40 Bus1=14_1134 Bus2=14_1150 phases=3 Linecode=4c_95_SAC_XC Length=52.2331 Units=m
New Line.LINE14_Cmpd_41 Bus1=14_898 Bus2=14_921 phases=3 Linecode=4c_.1 Length=11.4748 Units=m
New Line.LINE14_Cmpd_42 Bus1=14_1087 Bus2=14_1134 phases=3 Linecode=4c_95_SAC_XC Length=176.46516 Units=m
New Line.LINE14_Cmpd_43 Bus1=14_1036 Bus2=14_1087 phases=3 Linecode=3c_95_SAC_ASN Length=66.79602 Units=m
New Line.LINE14_Cmpd_44 Bus1=14_841 Bus2=14_875 phases=3 Linecode=4c_.1 Length=10.09443 Units=m
New Line.LINE14_Cmpd_45 Bus1=14_798 Bus2=14_897 phases=3 Linecode=2c_16 Length=10.10608 Units=m
New Line.LINE14_Cmpd_46 Bus1=14_605 Bus2=14_631 phases=3 Linecode=2c_16 Length=9.25759 Units=m
New Line.LINE14_Cmpd_47 Bus1=14_160 Bus2=14_234 phases=3 Linecode=2c_25 Length=4.20504 Units=m
New Line.LINE14_Cmpd_48 Bus1=14_921 Bus2=14_938 phases=3 Linecode=4c_.1 Length=6.0046 Units=m
New Line.LINE14_Cmpd_49 Bus1=14_93 Bus2=14_160 phases=3 Linecode=2c_25 Length=10.25682 Units=m
New Line.LINE14_Cmpd_50 Bus1=14_632 Bus2=14_739 phases=3 Linecode=2c_16 Length=10.90506 Units=m
New Line.LINE14_Cmpd_51 Bus1=14_1166 Bus2=14_1184 phases=3 Linecode=4c_.1 Length=12.11178 Units=m
New Line.LINE14_Cmpd_52 Bus1=14_116 Bus2=14_174 phases=3 Linecode=2c_16 Length=15.80622 Units=m
New Line.LINE14_Cmpd_53 Bus1=14_101 Bus2=14_181 phases=3 Linecode=2c_16 Length=13.21182 Units=m
New Line.LINE14_Cmpd_54 Bus1=14_631 Bus2=14_692 phases=3 Linecode=2c_16 Length=5.251367 Units=m
New Line.LINE14_Cmpd_55 Bus1=14_1100 Bus2=14_1156 phases=3 Linecode=4c_.1 Length=9.99956 Units=m
New Line.LINE14_Cmpd_56 Bus1=14_687 Bus2=14_727 phases=3 Linecode=4c_.06 Length=10.95893 Units=m
New Line.LINE14_Cmpd_57 Bus1=14_258 Bus2=14_434 phases=3 Linecode=2c_.0225 Length=26.07368 Units=m
New Line.LINE14_Cmpd_58 Bus1=14_887 Bus2=14_1000 phases=3 Linecode=2c_.0225 Length=13.06953 Units=m
New Line.LINE14_Cmpd_59 Bus1=14_481 Bus2=14_520 phases=3 Linecode=2c_.0225 Length=9.174508 Units=m
New Line.LINE14_Cmpd_60 Bus1=14_881 Bus2=14_960 phases=3 Linecode=2c_.0225 Length=18.548293 Units=m
New Line.LINE14_Cmpd_61 Bus1=14_101 Bus2=14_139 phases=3 Linecode=4c_.35 Length=16.564 Units=m
New Line.LINE14_Cmpd_62 Bus1=14_153 Bus2=14_190 phases=3 Linecode=2c_16 Length=5.84477 Units=m
New Line.LINE14_Cmpd_63 Bus1=14_897 Bus2=14_1022 phases=3 Linecode=2c_16 Length=11.42522 Units=m
New Line.LINE14_Cmpd_64 Bus1=14_153 Bus2=14_292 phases=3 Linecode=2c_16 Length=8.868836 Units=m
New Line.LINE14_Cmpd_65 Bus1=14_1184 Bus2=14_1199 phases=3 Linecode=4c_.1 Length=12.1851 Units=m
New Line.LINE14_Cmpd_66 Bus1=14_898 Bus2=14_989 phases=3 Linecode=2c_.0225 Length=10.59284 Units=m
New Line.LINE14_Cmpd_67 Bus1=14_631 Bus2=14_679 phases=3 Linecode=2c_16 Length=6.00783 Units=m
New Line.LINE14_Cmpd_68 Bus1=14_231 Bus2=14_380 phases=3 Linecode=2c_16 Length=15.53551 Units=m
New Line.LINE14_Cmpd_69 Bus1=14_291 Bus2=14_372 phases=3 Linecode=4c_.06 Length=16.9026 Units=m
New Line.LINE14_Cmpd_70 Bus1=14_585 Bus2=14_636 phases=3 Linecode=2c_16 Length=5.13646 Units=m
New Line.LINE14_Cmpd_71 Bus1=14_481 Bus2=14_554 phases=3 Linecode=2c_.0225 Length=5.05037 Units=m
New Line.LINE14_Cmpd_72 Bus1=14_459 Bus2=14_481 phases=3 Linecode=2c_.0225 Length=10.690048 Units=m
New Line.LINE14_Cmpd_73 Bus1=14_516 Bus2=14_584 phases=3 Linecode=2c_.0225 Length=10.31015 Units=m
New Line.LINE14_Cmpd_74 Bus1=14_291 Bus2=14_330 phases=3 Linecode=2c_16 Length=10.22234 Units=m
New Line.LINE14_Cmpd_75 Bus1=14_225 Bus2=14_291 phases=3 Linecode=4c_.06 Length=16.0809 Units=m
New Line.LINE14_Cmpd_76 Bus1=14_380 Bus2=14_473 phases=3 Linecode=2c_16 Length=8.663245 Units=m
New Line.LINE14_Cmpd_77 Bus1=14_149 Bus2=14_231 phases=3 Linecode=4c_70 Length=15.8569 Units=m
New Line.LINE14_Cmpd_78 Bus1=14_139 Bus2=14_216 phases=3 Linecode=4c_.35 Length=13.77928 Units=m
New Line.LINE14_Cmpd_79 Bus1=14_330 Bus2=14_484 phases=3 Linecode=2c_16 Length=7.00036 Units=m
New Line.LINE14_Cmpd_80 Bus1=14_1076 Bus2=14_1100 phases=3 Linecode=4c_.1 Length=7.574 Units=m
New Line.LINE14_Cmpd_81 Bus1=14_727 Bus2=14_748 phases=3 Linecode=2c_16 Length=12.2605 Units=m
New Line.LINE14_Cmpd_82 Bus1=14_1166 Bus2=14_1172 phases=3 Linecode=2c_.0225 Length=13.332 Units=m
New Line.LINE14_Cmpd_83 Bus1=14_181 Bus2=14_294 phases=3 Linecode=2c_16 Length=8.25 Units=m
New Line.LINE14_Cmpd_84 Bus1=14_1070 Bus2=14_1085 phases=3 Linecode=2c_.0225 Length=10.1473 Units=m
New Line.LINE14_Cmpd_85 Bus1=14_799 Bus2=14_816 phases=3 Linecode=2c_.0225 Length=14.4331 Units=m
New Line.LINE14_Cmpd_86 Bus1=14_162 Bus2=14_225 phases=3 Linecode=4c_.06 Length=10.7353 Units=m
New Line.LINE14_Cmpd_87 Bus1=14_299 Bus2=14_335 phases=3 Linecode=4c_.1 Length=10.471 Units=m
New Line.LINE14_Cmpd_88 Bus1=14_841 Bus2=14_854 phases=3 Linecode=2c_.0225 Length=16.7391 Units=m
New Line.LINE14_Cmpd_89 Bus1=14_26 Bus2=14_32 phases=3 Linecode=2c_16 Length=6.8569 Units=m
New Line.LINE14_Cmpd_90 Bus1=14_384 Bus2=14_416 phases=3 Linecode=2c_16 Length=7.5079 Units=m
New Line.LINE14_Cmpd_91 Bus1=14_549 Bus2=14_622 phases=3 Linecode=2c_.0225 Length=25.24848 Units=m
New Line.LINE14_Cmpd_92 Bus1=14_50 Bus2=14_61 phases=3 Linecode=2c_16 Length=8.6888 Units=m
New Line.LINE14_Cmpd_93 Bus1=14_284 Bus2=14_311 phases=3 Linecode=2c_.0225 Length=20.5954 Units=m
New Line.LINE14_Cmpd_94 Bus1=14_37 Bus2=14_44 phases=3 Linecode=4c_70 Length=13.2286 Units=m
New Line.LINE14_Cmpd_95 Bus1=14_330 Bus2=14_358 phases=3 Linecode=2c_16 Length=6.4466 Units=m
New Line.LINE14_Cmpd_96 Bus1=14_50 Bus2=14_70 phases=3 Linecode=2c_16 Length=2.53242 Units=m
New Line.LINE14_Cmpd_97 Bus1=14_1187 Bus2=14_1212 phases=3 Linecode=2c_.022 Length=7.2967 Units=m
New Line.LINE14_Cmpd_98 Bus1=14_938 Bus2=14_977 phases=3 Linecode=4c_.1 Length=16.49433 Units=m
New Line.LINE14_Cmpd_99 Bus1=14_1156 Bus2=14_1161 phases=3 Linecode=2c_.0225 Length=13.6364 Units=m
New Line.LINE14_Cmpd_100 Bus1=14_258 Bus2=14_284 phases=3 Linecode=4c_70 Length=3.4968 Units=m
New Line.LINE14_Cmpd_101 Bus1=14_799 Bus2=14_820 phases=3 Linecode=4c_.1 Length=10.9981 Units=m
New Line.LINE14_Cmpd_102 Bus1=14_159 Bus2=14_184 phases=3 Linecode=2c_16 Length=4.9572 Units=m
New Line.LINE14_Cmpd_103 Bus1=14_93 Bus2=14_149 phases=3 Linecode=4c_70 Length=21.0089 Units=m
New Line.LINE14_Cmpd_104 Bus1=14_875 Bus2=14_889 phases=3 Linecode=2c_.0225 Length=16.5615 Units=m
New Line.LINE14_Cmpd_105 Bus1=14_687 Bus2=14_708 phases=3 Linecode=2c_16 Length=12.069 Units=m
New Line.LINE14_Cmpd_106 Bus1=14_921 Bus2=14_939 phases=3 Linecode=2c_.0225 Length=12.5136 Units=m
New Line.LINE14_Cmpd_107 Bus1=14_1210 Bus2=14_1216 phases=3 Linecode=2c_.0225 Length=17.4098 Units=m
New Line.LINE14_Cmpd_108 Bus1=14_1199 Bus2=14_1210 phases=3 Linecode=4c_.1 Length=6.4832 Units=m
New Line.LINE14_Cmpd_109 Bus1=14_509 Bus2=14_527 phases=3 Linecode=2c_.0225 Length=12.8795 Units=m
New Line.LINE14_Cmpd_110 Bus1=14_820 Bus2=14_833 phases=3 Linecode=2c_.0225 Length=16.5379 Units=m
New Line.LINE14_Cmpd_111 Bus1=14_147 Bus2=14_167 phases=3 Linecode=2c_16 Length=6.2108 Units=m
New Line.LINE14_Cmpd_112 Bus1=14_1199 Bus2=14_1207 phases=3 Linecode=2c_.0225 Length=11.4721 Units=m
New Line.LINE14_Cmpd_113 Bus1=14_605 Bus2=14_632 phases=3 Linecode=4c_.06 Length=8.25821 Units=m
New Line.LINE14_Cmpd_114 Bus1=14_585 Bus2=14_605 phases=3 Linecode=4c_.06 Length=12.2941 Units=m
New Line.LINE14_Cmpd_115 Bus1=14_382 Bus2=14_414 phases=3 Linecode=2c_16 Length=9.9679 Units=m
New Line.LINE14_Cmpd_116 Bus1=14_231 Bus2=14_258 phases=3 Linecode=4c_70 Length=3.93754 Units=m
New Line.LINE14_Cmpd_117 Bus1=14_1187 Bus2=14_1194 phases=3 Linecode=2c_.0225 Length=10.9111 Units=m
New Line.LINE14_Cmpd_118 Bus1=14_1134 Bus2=14_1147 phases=3 Linecode=4c_95_SAC_XC Length=17.7683 Units=m
New Line.LINE14_Cmpd_119 Bus1=14_820 Bus2=14_834 phases=3 Linecode=4c_.1 Length=3.24018 Units=m
New Line.LINE14_Cmpd_120 Bus1=14_1065 Bus2=14_1078 phases=3 Linecode=2c_.0225 Length=10.411 Units=m
New Line.LINE14_Cmpd_121 Bus1=14_181 Bus2=14_206 phases=3 Linecode=2c_16 Length=6.0979 Units=m
New Line.LINE14_Cmpd_122 Bus1=14_1157 Bus2=14_1163 phases=3 Linecode=2c_.0225 Length=13.8329 Units=m
New Line.LINE14_Cmpd_123 Bus1=14_1076 Bus2=14_1091 phases=3 Linecode=2c_.0225 Length=10.4884 Units=m
New Line.LINE14_Cmpd_124 Bus1=14_887 Bus2=14_898 phases=3 Linecode=4c_.1 Length=5.63356 Units=m
