New Line.LINE174_50 Bus1=174_47 Bus2=174_51 phases=3 Linecode=2c_.04 Length=6.3571 Units=m
New Line.LINE174_58 Bus1=174_54 Bus2=174_59 phases=3 Linecode=2c_.04 Length=6.5276 Units=m
New Line.LINE174_103 Bus1=174_97 Bus2=174_104 phases=3 Linecode=2c_.04 Length=3.5564 Units=m
New Line.LINE174_105 Bus1=174_98 Bus2=174_106 phases=3 Linecode=2c_.04 Length=4.3132 Units=m
New Line.LINE174_113 Bus1=174_108 Bus2=174_114 phases=3 Linecode=2c_.04 Length=4.3549 Units=m
New Line.LINE174_115 Bus1=174_109 Bus2=174_116 phases=3 Linecode=2c_.04 Length=3.113 Units=m
New Line.LINE174_193 Bus1=174_187 Bus2=174_194 phases=3 Linecode=2c_.04 Length=2.7077 Units=m
New Line.LINE174_195 Bus1=174_188 Bus2=174_196 phases=3 Linecode=2c_.04 Length=4.1456 Units=m
New Line.LINE174_199 Bus1=174_191 Bus2=174_200 phases=3 Linecode=2c_.04 Length=5.0178 Units=m
New Line.LINE174_214 Bus1=174_207 Bus2=174_215 phases=3 Linecode=2c_.04 Length=2.9792 Units=m
New Line.LINE174_246 Bus1=174_237 Bus2=174_247 phases=3 Linecode=2c_.04 Length=5.7233 Units=m
New Line.LINE174_278 Bus1=174_269 Bus2=174_279 phases=3 Linecode=2c_.04 Length=9.0513 Units=m
New Line.LINE174_295 Bus1=174_284 Bus2=174_296 phases=3 Linecode=4c_.25 Length=16.8578 Units=m
New Line.LINE174_320 Bus1=174_307 Bus2=174_321 phases=3 Linecode=2c_.04 Length=8.9534 Units=m
New Line.LINE174_365 Bus1=174_351 Bus2=174_366 phases=3 Linecode=2c_.04 Length=3.5182 Units=m
New Line.LINE174_366 Bus1=174_351 Bus2=174_367 phases=3 Linecode=2c_.04 Length=3.5182 Units=m
New Line.LINE174_367 Bus1=174_352 Bus2=174_368 phases=3 Linecode=2c_.04 Length=5.7275 Units=m
New Line.LINE174_368 Bus1=174_352 Bus2=174_369 phases=3 Linecode=2c_.04 Length=5.7275 Units=m
New Line.LINE174_377 Bus1=174_360 Bus2=174_378 phases=3 Linecode=2c_.04 Length=3.0639 Units=m
New Line.LINE174_404 Bus1=174_392 Bus2=174_405 phases=3 Linecode=2c_.04 Length=3.6684 Units=m
New Line.LINE174_409 Bus1=174_397 Bus2=174_410 phases=3 Linecode=2c_.04 Length=2.02 Units=m
New Line.LINE174_410 Bus1=174_397 Bus2=174_411 phases=3 Linecode=2c_.04 Length=2.02 Units=m
New Line.LINE174_411 Bus1=174_398 Bus2=174_412 phases=3 Linecode=2c_.04 Length=3.7331 Units=m
New Line.LINE174_412 Bus1=174_398 Bus2=174_413 phases=3 Linecode=2c_.04 Length=3.7331 Units=m
New Line.LINE174_435 Bus1=174_425 Bus2=174_436 phases=3 Linecode=4c_.25 Length=5.5845 Units=m
New Line.LINE174_443 Bus1=174_432 Bus2=174_444 phases=3 Linecode=4c_.12 Length=3.7383 Units=m
New Line.LINE174_451 Bus1=174_440 Bus2=174_452 phases=3 Linecode=2c_.04 Length=2.8778 Units=m
New Line.LINE174_456 Bus1=174_444 Bus2=174_457 phases=3 Linecode=2c_.04 Length=5.9176 Units=m
New Line.LINE174_477 Bus1=174_465 Bus2=174_478 phases=3 Linecode=2c_.04 Length=4.827 Units=m
New Line.LINE174_496 Bus1=174_483 Bus2=174_497 phases=3 Linecode=2c_.04 Length=3.7578 Units=m
New Line.LINE174_507 Bus1=174_492 Bus2=174_508 phases=3 Linecode=2c_.04 Length=4.9729 Units=m
New Line.LINE174_523 Bus1=174_507 Bus2=174_524 phases=3 Linecode=2c_.04 Length=9.8871 Units=m
New Line.LINE174_565 Bus1=174_547 Bus2=174_566 phases=3 Linecode=2c_.04 Length=2.9529 Units=m
New Line.LINE174_566 Bus1=174_547 Bus2=174_567 phases=3 Linecode=2c_.04 Length=2.9529 Units=m
New Line.LINE174_631 Bus1=174_617 Bus2=174_632 phases=3 Linecode=2c_.04 Length=5.0365 Units=m
New Line.LINE174_636 Bus1=174_622 Bus2=174_637 phases=3 Linecode=2c_.04 Length=10.1351 Units=m
New Line.LINE174_665 Bus1=174_649 Bus2=174_666 phases=3 Linecode=2c_.04 Length=4.4506 Units=m
New Line.LINE174_666 Bus1=174_649 Bus2=174_667 phases=3 Linecode=2c_.04 Length=4.4506 Units=m
New Line.LINE174_693 Bus1=174_675 Bus2=174_694 phases=3 Linecode=2c_.04 Length=5.7031 Units=m
New Line.LINE174_740 Bus1=174_724 Bus2=174_741 phases=3 Linecode=2c_.04 Length=4.293 Units=m
New Line.LINE174_742 Bus1=174_725 Bus2=174_743 phases=3 Linecode=2c_.04 Length=1.8769 Units=m
New Line.LINE174_770 Bus1=174_757 Bus2=174_771 phases=3 Linecode=2c_.04 Length=5.1535 Units=m
New Line.LINE174_784 Bus1=174_770 Bus2=174_785 phases=3 Linecode=2c_.04 Length=5.3109 Units=m
New Line.LINE174_797 Bus1=174_782 Bus2=174_798 phases=3 Linecode=2c_.04 Length=4.0706 Units=m
New Line.LINE174_812 Bus1=174_797 Bus2=174_813 phases=3 Linecode=2c_.04 Length=7.2653 Units=m
New Line.LINE174_813 Bus1=174_797 Bus2=174_814 phases=3 Linecode=4c_.06 Length=1.8591 Units=m
New Line.LINE174_815 Bus1=174_800 Bus2=174_816 phases=3 Linecode=2c_.04 Length=3.9397 Units=m
New Line.LINE174_816 Bus1=174_800 Bus2=174_817 phases=3 Linecode=2c_.04 Length=3.9397 Units=m
New Line.LINE174_828 Bus1=174_813 Bus2=174_829 phases=3 Linecode=2c_.04 Length=5.2662 Units=m
New Line.LINE174_872 Bus1=174_858 Bus2=174_873 phases=3 Linecode=2c_.04 Length=5.52 Units=m
New Line.LINE174_877 Bus1=174_862 Bus2=174_878 phases=3 Linecode=2c_.04 Length=4.0492 Units=m
New Line.LINE174_928 Bus1=174_915 Bus2=174_929 phases=3 Linecode=2c_.04 Length=1.4203 Units=m
New Line.LINE174_955 Bus1=174_945 Bus2=174_956 phases=3 Linecode=2c_.04 Length=3.5946 Units=m
New Line.LINE174_956 Bus1=174_945 Bus2=174_957 phases=3 Linecode=2c_.04 Length=3.5946 Units=m
New Line.LINE174_960 Bus1=174_948 Bus2=174_961 phases=3 Linecode=2c_.04 Length=5.896 Units=m
New Line.LINE174_961 Bus1=174_948 Bus2=174_962 phases=3 Linecode=2c_.04 Length=5.896 Units=m
New Line.LINE174_1019 Bus1=174_1009 Bus2=174_1020 phases=3 Linecode=2c_.04 Length=6.6052 Units=m
New Line.LINE174_1020 Bus1=174_1009 Bus2=174_1021 phases=3 Linecode=2c_.04 Length=6.6052 Units=m
New Line.LINE174_1054 Bus1=174_1044 Bus2=174_1055 phases=3 Linecode=2c_.04 Length=6.4201 Units=m
New Line.LINE174_1109 Bus1=174_1100 Bus2=174_1110 phases=3 Linecode=2c_.04 Length=7.853 Units=m
New Line.LINE174_1110 Bus1=174_1100 Bus2=174_1111 phases=3 Linecode=2c_.04 Length=7.853 Units=m
New Line.LINE174_1203 Bus1=174_1196 Bus2=174_1204 phases=3 Linecode=2c_.04 Length=4.8154 Units=m
New Line.LINE174_1205 Bus1=174_1197 Bus2=174_1206 phases=3 Linecode=2c_.04 Length=5.1199 Units=m
New Line.LINE174_1209 Bus1=174_1200 Bus2=174_1210 phases=3 Linecode=3c_.04 Length=5.031 Units=m
New Line.LINE174_1225 Bus1=174_1218 Bus2=174_1226 phases=3 Linecode=2c_.04 Length=5.6364 Units=m
New Line.LINE174_1237 Bus1=174_1230 Bus2=174_1238 phases=3 Linecode=2c_.04 Length=2.9033 Units=m
New Line.LINE174_1238 Bus1=174_1230 Bus2=174_1239 phases=3 Linecode=2c_.04 Length=2.9033 Units=m
New Line.LINE174_1284 Bus1=174_1278 Bus2=174_1285 phases=3 Linecode=2c_.04 Length=4.25 Units=m
New Line.LINE174_1291 Bus1=174_1284 Bus2=174_1292 phases=3 Linecode=2c_.04 Length=5.6122 Units=m
New Line.LINE174_1295 Bus1=174_1288 Bus2=174_1296 phases=3 Linecode=2c_.04 Length=5.4356 Units=m
New Line.LINE174_1299 Bus1=174_1290 Bus2=174_1300 phases=3 Linecode=2c_.04 Length=5.8275 Units=m
New Line.LINE174_1330 Bus1=174_1323 Bus2=174_1331 phases=3 Linecode=2c_.04 Length=3.4503 Units=m
New Line.LINE174_1334 Bus1=174_1326 Bus2=174_1335 phases=3 Linecode=2c_.04 Length=4.095 Units=m
New Line.LINE174_1365 Bus1=174_1358 Bus2=174_1366 phases=3 Linecode=2c_.04 Length=4.4487 Units=m
New Line.LINE174_1371 Bus1=174_1363 Bus2=174_1372 phases=3 Linecode=2c_.04 Length=4.3293 Units=m
New Line.LINE174_1394 Bus1=174_1387 Bus2=174_1395 phases=3 Linecode=2c_.04 Length=5.0988 Units=m
New Line.LINE174_1396 Bus1=174_1388 Bus2=174_1397 phases=3 Linecode=2c_.04 Length=3.9097 Units=m
New Line.LINE174_1428 Bus1=174_1423 Bus2=174_1429 phases=3 Linecode=2c_.04 Length=1.733 Units=m
New Line.LINE174_1442 Bus1=174_1437 Bus2=174_1443 phases=3 Linecode=2c_.04 Length=6.4539 Units=m
New Line.LINE174_1464 Bus1=174_1461 Bus2=174_1465 phases=3 Linecode=2c_.04 Length=5.5541 Units=m
New Line.LINE174_1478 Bus1=174_1475 Bus2=174_1479 phases=3 Linecode=2c_.04 Length=5.1458 Units=m
New Line.LINE174_1488 Bus1=174_1485 Bus2=174_1489 phases=3 Linecode=2c_.04 Length=1.6821 Units=m
New Line.LINE174_1490 Bus1=174_1486 Bus2=174_1491 phases=3 Linecode=2c_.04 Length=4.9056 Units=m
New Line.LINE174_Cmpd_0 Bus1=174_945 Bus2=174_1077 phases=3 Linecode=2c_.04 Length=18.96491 Units=m
New Line.LINE174_Cmpd_1 Bus1=174_1197 Bus2=174_1326 phases=3 Linecode=2c_.04 Length=9.95853 Units=m
New Line.LINE174_Cmpd_2 Bus1=174_457 Bus2=174_617 phases=3 Linecode=2c_.04 Length=7.01431 Units=m
New Line.LINE174_Cmpd_3 Bus1=174_547 Bus2=174_800 phases=3 Linecode=2c_.04 Length=17.13623 Units=m
New Line.LINE174_Cmpd_4 Bus1=174_881 Bus2=174_1047 phases=3 Linecode=4c_.06 Length=24.75066 Units=m
New Line.LINE174_Cmpd_5 Bus1=174_915 Bus2=174_1140 phases=3 Linecode=2c_.04 Length=26.09478 Units=m
New Line.LINE174_Cmpd_6 Bus1=174_592 Bus2=174_724 phases=3 Linecode=2c_.04 Length=3.43465 Units=m
New Line.LINE174_Cmpd_7 Bus1=174_1290 Bus2=174_1418 phases=3 Linecode=2c_.04 Length=13.14885 Units=m
New Line.LINE174_Cmpd_8 Bus1=174_1485 Bus2=174_1534 phases=3 Linecode=2c_.04 Length=14.839953 Units=m
New Line.LINE174_Cmpd_9 Bus1=174_1289 Bus2=174_1358 phases=3 Linecode=2c_.04 Length=4.41046 Units=m
New Line.LINE174_Cmpd_10 Bus1=174_1022 Bus2=174_1230 phases=3 Linecode=2c_.04 Length=18.980297 Units=m
New Line.LINE174_Cmpd_11 Bus1=174_483 Bus2=174_684 phases=3 Linecode=2c_.04 Length=17.9505 Units=m
New Line.LINE174_Cmpd_12 Bus1=174_1047 Bus2=174_1125 phases=3 Linecode=4c_.04 Length=16.60874 Units=m
New Line.LINE174_Cmpd_13 Bus1=174_1326 Bus2=174_1438 phases=3 Linecode=2c_.04 Length=12.77822 Units=m
New Line.LINE174_Cmpd_14 Bus1=174_858 Bus2=174_1022 phases=3 Linecode=2c_.04 Length=8.39579 Units=m
New Line.LINE174_Cmpd_15 Bus1=174_1363 Bus2=174_1441 phases=3 Linecode=2c_.04 Length=12.48781 Units=m
New Line.LINE174_Cmpd_16 Bus1=174_1461 Bus2=174_1525 phases=3 Linecode=2c_.04 Length=15.36962 Units=m
New Line.LINE174_Cmpd_17 Bus1=174_1423 Bus2=174_1485 phases=3 Linecode=2c_.04 Length=9.09104 Units=m
New Line.LINE174_Cmpd_18 Bus1=174_188 Bus2=174_348 phases=3 Linecode=2c_.04 Length=16.57002 Units=m
New Line.LINE174_Cmpd_19 Bus1=174_1196 Bus2=174_1290 phases=3 Linecode=2c_.04 Length=11.518622 Units=m
New Line.LINE174_Cmpd_20 Bus1=174_776 Bus2=174_840 phases=3 Linecode=2c_.04 Length=1.09313 Units=m
New Line.LINE174_Cmpd_21 Bus1=174_440 Bus2=174_782 phases=3 Linecode=2c_.04 Length=24.13004 Units=m
New Line.LINE174_Cmpd_22 Bus1=174_1125 Bus2=174_1196 phases=3 Linecode=2c_.04 Length=6.045155 Units=m
New Line.LINE174_Cmpd_23 Bus1=174_694 Bus2=174_858 phases=3 Linecode=2c_.04 Length=3.61595 Units=m
New Line.LINE174_Cmpd_24 Bus1=174_617 Bus2=174_770 phases=3 Linecode=2c_.04 Length=7.94768 Units=m
New Line.LINE174_Cmpd_25 Bus1=174_1237 Bus2=174_1289 phases=3 Linecode=4c_.04 Length=15.255233 Units=m
New Line.LINE174_Cmpd_26 Bus1=174_240 Bus2=174_409 phases=3 Linecode=4c_.3_SAC Length=18.96037 Units=m
New Line.LINE174_Cmpd_27 Bus1=174_465 Bus2=174_527 phases=3 Linecode=2c_.04 Length=10.28319 Units=m
New Line.LINE174_Cmpd_28 Bus1=174_34 Bus2=174_47 phases=3 Linecode=4c_.25 Length=28.90984 Units=m
New Line.LINE174_Cmpd_29 Bus1=174_98 Bus2=174_188 phases=3 Linecode=2c_.04 Length=7.90992 Units=m
New Line.LINE174_Cmpd_30 Bus1=174_191 Bus2=174_269 phases=3 Linecode=2c_.04 Length=6.60306 Units=m
New Line.LINE174_Cmpd_31 Bus1=174_1388 Bus2=174_1475 phases=3 Linecode=2c_.04 Length=13.033913 Units=m
New Line.LINE174_Cmpd_32 Bus1=174_1437 Bus2=174_1486 phases=3 Linecode=2c_.04 Length=10.32635 Units=m
New Line.LINE174_Cmpd_33 Bus1=174_694 Bus2=174_948 phases=3 Linecode=2c_.04 Length=17.75291 Units=m
New Line.LINE174_Cmpd_34 Bus1=174_757 Bus2=174_943 phases=3 Linecode=2c_.04 Length=18.21874 Units=m
New Line.LINE174_Cmpd_35 Bus1=174_1047 Bus2=174_1190 phases=3 Linecode=4c_.06 Length=15.907 Units=m
New Line.LINE174_Cmpd_36 Bus1=174_840 Bus2=174_1009 phases=3 Linecode=2c_.04 Length=6.927924 Units=m
New Line.LINE174_Cmpd_37 Bus1=174_814 Bus2=174_881 phases=3 Linecode=4c_.06 Length=42.09534 Units=m
New Line.LINE174_Cmpd_38 Bus1=174_609 Bus2=174_797 phases=3 Linecode=4c_.06 Length=21.54794 Units=m
New Line.LINE174_Cmpd_39 Bus1=174_881 Bus2=174_1074 phases=3 Linecode=4c_.06 Length=32.97298 Units=m
New Line.LINE174_Cmpd_40 Bus1=174_770 Bus2=174_1100 phases=3 Linecode=2c_.04 Length=21.93453 Units=m
New Line.LINE174_Cmpd_41 Bus1=174_524 Bus2=174_581 phases=3 Linecode=2c_.04 Length=6.14798 Units=m
New Line.LINE174_Cmpd_42 Bus1=174_1125 Bus2=174_1197 phases=3 Linecode=2c_.04 Length=3.58482 Units=m
New Line.LINE174_Cmpd_43 Bus1=174_1486 Bus2=174_1528 phases=3 Linecode=2c_.04 Length=11.42466 Units=m
New Line.LINE174_Cmpd_44 Bus1=174_109 Bus2=174_207 phases=3 Linecode=2c_.04 Length=8.095808 Units=m
New Line.LINE174_Cmpd_45 Bus1=174_862 Bus2=174_1024 phases=3 Linecode=2c_.04 Length=11.44483 Units=m
New Line.LINE174_Cmpd_46 Bus1=174_207 Bus2=174_383 phases=3 Linecode=2c_.04 Length=11.346017 Units=m
New Line.LINE174_Cmpd_47 Bus1=174_1074 Bus2=174_1148 phases=3 Linecode=2c_.04 Length=16.99533 Units=m
New Line.LINE174_Cmpd_48 Bus1=174_776 Bus2=174_823 phases=3 Linecode=2c_.04 Length=1.03516 Units=m
New Line.LINE174_Cmpd_49 Bus1=174_1387 Bus2=174_1461 phases=3 Linecode=2c_.04 Length=12.43988 Units=m
New Line.LINE174_Cmpd_50 Bus1=174_457 Bus2=174_649 phases=3 Linecode=2c_.04 Length=13.99566 Units=m
New Line.LINE174_Cmpd_51 Bus1=174_490 Bus2=174_610 phases=3 Linecode=2c_.04 Length=5.48418 Units=m
New Line.LINE174_Cmpd_52 Bus1=174_823 Bus2=174_945 phases=3 Linecode=2c_.04 Length=7.129699 Units=m
New Line.LINE174_Cmpd_53 Bus1=174_1 Bus2=174_34 phases=3 Linecode=3c_300_SAC_XC Length=43.893978 Units=m
New Line.LINE174_Cmpd_54 Bus1=174_360 Bus2=174_547 phases=3 Linecode=2c_.04 Length=15.5242 Units=m
New Line.LINE174_Cmpd_55 Bus1=174_307 Bus2=174_414 phases=3 Linecode=2c_.04 Length=11.96312 Units=m
New Line.LINE174_Cmpd_56 Bus1=174_409 Bus2=174_432 phases=3 Linecode=4c_.12 Length=21.36164 Units=m
New Line.LINE174_Cmpd_57 Bus1=174_1323 Bus2=174_1423 phases=3 Linecode=2c_.04 Length=8.13876 Units=m
New Line.LINE174_Cmpd_58 Bus1=174_1475 Bus2=174_1531 phases=3 Linecode=2c_.04 Length=11.39824 Units=m
New Line.LINE174_Cmpd_59 Bus1=174_279 Bus2=174_351 phases=3 Linecode=2c_.04 Length=8.72513 Units=m
New Line.LINE174_Cmpd_60 Bus1=174_1148 Bus2=174_1218 phases=3 Linecode=2c_.04 Length=3.04463 Units=m
New Line.LINE174_Cmpd_61 Bus1=174_1288 Bus2=174_1408 phases=3 Linecode=2c_.04 Length=14.054081 Units=m
New Line.LINE174_Cmpd_62 Bus1=174_948 Bus2=174_1044 phases=3 Linecode=2c_.04 Length=8.15672 Units=m
New Line.LINE174_Cmpd_63 Bus1=174_390 Bus2=174_492 phases=3 Linecode=2c_.04 Length=7.85955 Units=m
New Line.LINE174_Cmpd_64 Bus1=174_1074 Bus2=174_1237 phases=3 Linecode=4c_.06 Length=14.84604 Units=m
New Line.LINE174_Cmpd_65 Bus1=174_296 Bus2=174_392 phases=3 Linecode=2c_.04 Length=10.88752 Units=m
New Line.LINE174_Cmpd_66 Bus1=174_1190 Bus2=174_1243 phases=3 Linecode=4c_.04 Length=13.534873 Units=m
New Line.LINE174_Cmpd_67 Bus1=174_813 Bus2=174_1000 phases=3 Linecode=2c_.04 Length=17.72656 Units=m
New Line.LINE174_Cmpd_68 Bus1=174_1200 Bus2=174_1288 phases=3 Linecode=2c_.04 Length=11.19727 Units=m
New Line.LINE174_Cmpd_69 Bus1=174_1218 Bus2=174_1363 phases=3 Linecode=2c_.04 Length=11.87662 Units=m
New Line.LINE174_Cmpd_70 Bus1=174_490 Bus2=174_752 phases=3 Linecode=2c_.04 Length=10.19677 Units=m
New Line.LINE174_Cmpd_71 Bus1=174_1243 Bus2=174_1278 phases=3 Linecode=2c_.04 Length=3.6524 Units=m
New Line.LINE174_Cmpd_72 Bus1=174_1044 Bus2=174_1170 phases=3 Linecode=2c_.04 Length=19.87153 Units=m
New Line.LINE174_Cmpd_73 Bus1=174_187 Bus2=174_382 phases=3 Linecode=2c_.04 Length=15.566996 Units=m
New Line.LINE174_Cmpd_74 Bus1=174_97 Bus2=174_187 phases=3 Linecode=2c_.04 Length=8.84202 Units=m
New Line.LINE174_Cmpd_75 Bus1=174_1278 Bus2=174_1388 phases=3 Linecode=2c_.04 Length=8.232838 Units=m
New Line.LINE174_Cmpd_76 Bus1=174_724 Bus2=174_915 phases=3 Linecode=2c_.04 Length=7.32606 Units=m
New Line.LINE174_Cmpd_77 Bus1=174_823 Bus2=174_932 phases=3 Linecode=25_PSC Length=5.12374 Units=m
New Line.LINE174_Cmpd_78 Bus1=174_59 Bus2=174_108 phases=3 Linecode=2c_.04 Length=5.0082 Units=m
New Line.LINE174_Cmpd_79 Bus1=174_637 Bus2=174_707 phases=3 Linecode=25_PSC Length=4.47236 Units=m
New Line.LINE174_Cmpd_80 Bus1=174_725 Bus2=174_853 phases=3 Linecode=2c_.04 Length=11.34234 Units=m
New Line.LINE174_Cmpd_81 Bus1=174_321 Bus2=174_397 phases=3 Linecode=2c_.04 Length=8.01495 Units=m
New Line.LINE174_Cmpd_82 Bus1=174_51 Bus2=174_98 phases=3 Linecode=2c_.04 Length=4.141891 Units=m
New Line.LINE174_Cmpd_83 Bus1=174_54 Bus2=174_177 phases=3 Linecode=4c_.25 Length=83.2647 Units=m
New Line.LINE174_Cmpd_84 Bus1=174_1358 Bus2=174_1437 phases=3 Linecode=2c_.04 Length=6.63987 Units=m
New Line.LINE174_Cmpd_85 Bus1=174_51 Bus2=174_97 phases=3 Linecode=2c_.04 Length=3.97698 Units=m
New Line.LINE174_Cmpd_86 Bus1=174_840 Bus2=174_933 phases=3 Linecode=25_PSC Length=5.27912 Units=m
New Line.LINE174_Cmpd_87 Bus1=174_59 Bus2=174_109 phases=3 Linecode=2c_.04 Length=7.548121 Units=m
New Line.LINE174_Cmpd_88 Bus1=174_814 Bus2=174_862 phases=3 Linecode=2c_.04 Length=14.9238 Units=m
New Line.LINE174_Cmpd_89 Bus1=174_444 Bus2=174_520 phases=3 Linecode=4c_.12 Length=33.6262 Units=m
New Line.LINE174_Cmpd_90 Bus1=174_237 Bus2=174_307 phases=3 Linecode=2c_.04 Length=6.79371 Units=m
New Line.LINE174_Cmpd_91 Bus1=174_622 Bus2=174_691 phases=3 Linecode=2c_.04 Length=5.14951 Units=m
New Line.LINE174_Cmpd_92 Bus1=174_357 Bus2=174_390 phases=3 Linecode=2c_.04 Length=9.65465 Units=m
New Line.LINE174_Cmpd_93 Bus1=174_1284 Bus2=174_1387 phases=3 Linecode=2c_.04 Length=9.13558 Units=m
New Line.LINE174_Cmpd_94 Bus1=174_390 Bus2=174_465 phases=3 Linecode=2c_.04 Length=9.47056 Units=m
New Line.LINE174_Cmpd_95 Bus1=174_524 Bus2=174_560 phases=3 Linecode=2c_.04 Length=3.8912 Units=m
New Line.LINE174_Cmpd_96 Bus1=174_269 Bus2=174_385 phases=3 Linecode=2c_.04 Length=11.95737 Units=m
New Line.LINE174_Cmpd_97 Bus1=174_649 Bus2=174_757 phases=3 Linecode=2c_.04 Length=7.32705 Units=m
New Line.LINE174_Cmpd_98 Bus1=174_520 Bus2=174_609 phases=3 Linecode=4c_.12 Length=16.01617 Units=m
New Line.LINE174_Cmpd_99 Bus1=174_520 Bus2=174_592 phases=3 Linecode=4c_.04 Length=19.2592 Units=m
New Line.LINE174_Cmpd_100 Bus1=174_1243 Bus2=174_1284 phases=3 Linecode=2c_.04 Length=2.85129 Units=m
New Line.LINE174_Cmpd_101 Bus1=174_284 Bus2=174_360 phases=3 Linecode=2c_.04 Length=12.35227 Units=m
New Line.LINE174_Cmpd_102 Bus1=174_432 Bus2=174_483 phases=3 Linecode=2c_.04 Length=15.55822 Units=m
New Line.LINE174_Cmpd_103 Bus1=174_1148 Bus2=174_1200 phases=3 Linecode=2c_.04 Length=5.434946 Units=m
New Line.LINE174_Cmpd_104 Bus1=174_463 Bus2=174_507 phases=3 Linecode=4c_.25 Length=16.0213 Units=m
New Line.LINE174_Cmpd_105 Bus1=174_202 Bus2=174_237 phases=3 Linecode=2c_.04 Length=6.1183 Units=m
New Line.LINE174_Cmpd_106 Bus1=174_1289 Bus2=174_1323 phases=3 Linecode=2c_.04 Length=3.07338 Units=m
New Line.LINE174_Cmpd_107 Bus1=174_108 Bus2=174_173 phases=3 Linecode=2c_.04 Length=10.54764 Units=m
New Line.LINE174_Cmpd_108 Bus1=174_202 Bus2=174_240 phases=3 Linecode=4c_.25 Length=24.0901 Units=m
New Line.LINE174_Cmpd_109 Bus1=174_392 Bus2=174_440 phases=3 Linecode=2c_.04 Length=3.53963 Units=m
New Line.LINE174_Cmpd_110 Bus1=174_436 Bus2=174_462 phases=3 Linecode=2c_.04 Length=11.6902 Units=m
New Line.LINE174_Cmpd_111 Bus1=174_782 Bus2=174_815 phases=3 Linecode=2c_.04 Length=7.3863 Units=m
New Line.LINE174_Cmpd_112 Bus1=174_357 Bus2=174_425 phases=3 Linecode=4c_.25 Length=24.65438 Units=m
New Line.LINE174_Cmpd_113 Bus1=174_1022 Bus2=174_1090 phases=3 Linecode=2c_.04 Length=6.11291 Units=m
New Line.LINE174_Cmpd_114 Bus1=174_240 Bus2=174_284 phases=3 Linecode=4c_.25 Length=29.3625 Units=m
New Line.LINE174_Cmpd_115 Bus1=174_463 Bus2=174_490 phases=3 Linecode=2c_.04 Length=7.5534 Units=m
New Line.LINE174_Cmpd_116 Bus1=174_177 Bus2=174_202 phases=3 Linecode=4c_.25 Length=41.5429 Units=m
New Line.LINE174_Cmpd_117 Bus1=174_710 Bus2=174_776 phases=3 Linecode=4c_.04 Length=22.4931 Units=m
New Line.LINE174_Cmpd_118 Bus1=174_492 Bus2=174_564 phases=3 Linecode=2c_.04 Length=11.13588 Units=m
New Line.LINE174_Cmpd_119 Bus1=174_637 Bus2=174_725 phases=3 Linecode=2c_.04 Length=6.47779 Units=m
New Line.LINE174_Cmpd_120 Bus1=174_425 Bus2=174_461 phases=3 Linecode=2c_.04 Length=15.2468 Units=m
New Line.LINE174_Cmpd_121 Bus1=174_321 Bus2=174_398 phases=3 Linecode=2c_.04 Length=8.0103 Units=m
New Line.LINE174_Cmpd_122 Bus1=174_279 Bus2=174_352 phases=3 Linecode=2c_.04 Length=8.21146 Units=m
New Line.LINE174_Cmpd_123 Bus1=174_436 Bus2=174_463 phases=3 Linecode=4c_.25 Length=14.5738 Units=m
New Line.LINE174_Cmpd_124 Bus1=174_609 Bus2=174_675 phases=3 Linecode=4c_.12 Length=38.76192 Units=m
New Line.LINE174_Cmpd_125 Bus1=174_47 Bus2=174_54 phases=3 Linecode=4c_.25 Length=45.6272 Units=m
New Line.LINE174_Cmpd_126 Bus1=174_177 Bus2=174_191 phases=3 Linecode=2c_.04 Length=6.36419 Units=m
New Line.LINE174_Cmpd_127 Bus1=174_675 Bus2=174_710 phases=3 Linecode=4c_.12 Length=6.56439 Units=m
New Line.LINE174_Cmpd_128 Bus1=174_592 Bus2=174_622 phases=3 Linecode=2c_.04 Length=6.45 Units=m
New Line.LINE174_Cmpd_129 Bus1=174_296 Bus2=174_357 phases=3 Linecode=4c_.25 Length=42.3649 Units=m
