New Line.LINE58 Bus1=58 Bus2=59 phases=3 Linecode=25_SAC_XC Length=4.6979 Units=m
New Line.LINE59 Bus1=58 Bus2=60 phases=3 Linecode=4c_.2_SAC Length=0.11132 Units=m
New Line.LINE60 Bus1=60 Bus2=61 phases=3 Linecode=4c_.2_SAC Length=4.7567 Units=m
New Line.LINE61 Bus1=61 Bus2=62 phases=3 Linecode=4c_.2_SAC Length=1.8862 Units=m
New Line.LINE62 Bus1=62 Bus2=63 phases=3 Linecode=4c_.2_SAC Length=1.4911 Units=m
New Line.LINE63 Bus1=63 Bus2=64 phases=3 Linecode=4c_.2_SAC Length=0.44752 Units=m
New Line.LINE64 Bus1=64 Bus2=65 phases=3 Linecode=4c_.2_SAC Length=0.679 Units=m
New Line.LINE65 Bus1=65 Bus2=66 phases=3 Linecode=5c_.1 Length=1.1416 Units=m
New Line.LINE66 Bus1=66 Bus2=67 phases=3 Linecode=5c_.1 Length=4.7804 Units=m
New Line.LINE67 Bus1=67 Bus2=68 phases=3 Linecode=5c_.1 Length=0.57781 Units=m
New Line.LINE68 Bus1=68 Bus2=69 phases=3 Linecode=5c_.1 Length=0.58544 Units=m
New Line.LINE69 Bus1=69 Bus2=70 phases=3 Linecode=5c_.1 Length=5.5074 Units=m
New Line.LINE71 Bus1=70 Bus2=72 phases=3 Linecode=5c_.1 Length=0.83931 Units=m
New Line.LINE73 Bus1=72 Bus2=74 phases=3 Linecode=5c_.1 Length=0.89923 Units=m
New Line.LINE76 Bus1=74 Bus2=77 phases=3 Linecode=5c_.1 Length=6.4647 Units=m
New Line.LINE79 Bus1=77 Bus2=80 phases=3 Linecode=5c_.1 Length=4.3694 Units=m
New Line.LINE107 Bus1=103 Bus2=108 phases=3 Linecode=2c_.0145 Length=9.3908 Units=m
New Line.LINE113 Bus1=108 Bus2=114 phases=3 Linecode=2c_.0145 Length=4.3751 Units=m
New Line.LINE140 Bus1=134 Bus2=141 phases=3 Linecode=5c_.1 Length=7.6863 Units=m
New Line.LINE170 Bus1=164 Bus2=171 phases=3 Linecode=5c_.1 Length=9.4965 Units=m
New Line.LINE226 Bus1=220 Bus2=227 phases=3 Linecode=5c_.1 Length=2.9178 Units=m
New Line.LINE233 Bus1=227 Bus2=234 phases=3 Linecode=5c_.1 Length=7.6616 Units=m
New Line.LINE234 Bus1=227 Bus2=235 phases=3 Linecode=25_SAC_XC Length=1.4764 Units=m
New Line.LINE294 Bus1=287 Bus2=295 phases=3 Linecode=5c_.1 Length=5.7197 Units=m
New Line.LINE300 Bus1=295 Bus2=301 phases=3 Linecode=5c_.1 Length=5.0149 Units=m
New Line.LINE306 Bus1=301 Bus2=307 phases=3 Linecode=5c_.1 Length=3.3676 Units=m
New Line.LINE312 Bus1=307 Bus2=313 phases=3 Linecode=.3 Length=1.2686 Units=m
New Line.LINE317 Bus1=313 Bus2=318 phases=3 Linecode=.3 Length=1.9041 Units=m
New Line.LINE321 Bus1=318 Bus2=322 phases=3 Linecode=25_SAC_XC Length=9.0492 Units=m
New Line.LINE325 Bus1=322 Bus2=326 phases=3 Linecode=25_SAC_XC Length=0.4658 Units=m
New Line.LINE329 Bus1=326 Bus2=330 phases=3 Linecode=25_SAC_XC Length=1.1113 Units=m
New Line.LINE332 Bus1=330 Bus2=333 phases=3 Linecode=25_SAC_XC Length=7.2022 Units=m
New Line.LINECmpd_0 Bus1=234 Bus2=343 phases=3 Linecode=16_PSC Length=18.87145 Units=m
New Line.LINECmpd_1 Bus1=188 Bus2=220 phases=3 Linecode=5c_.1 Length=8.8014 Units=m
New Line.LINECmpd_2 Bus1=134 Bus2=292 phases=3 Linecode=16_PSC Length=16.359407 Units=m
New Line.LINECmpd_3 Bus1=1 Bus2=58 phases=3 Linecode=4c_.2_SAC Length=47.587413 Units=m
New Line.LINECmpd_4 Bus1=164 Bus2=321 phases=3 Linecode=16_PSC Length=17.168832 Units=m
New Line.LINECmpd_5 Bus1=247 Bus2=287 phases=3 Linecode=5c_.1 Length=9.55374 Units=m
New Line.LINECmpd_6 Bus1=108 Bus2=194 phases=3 Linecode=2c_.0145 Length=10.30238 Units=m
New Line.LINECmpd_7 Bus1=80 Bus2=87 phases=3 Linecode=2c_.0145 Length=14.0204 Units=m
New Line.LINECmpd_8 Bus1=93 Bus2=216 phases=3 Linecode=25_SAC_XC Length=19.480289 Units=m
New Line.LINECmpd_9 Bus1=287 Bus2=347 phases=3 Linecode=16_PSC Length=16.94679 Units=m
New Line.LINECmpd_10 Bus1=188 Bus2=213 phases=3 Linecode=2c_.0225 Length=13.1159 Units=m
New Line.LINECmpd_11 Bus1=116 Bus2=134 phases=3 Linecode=5c_.1 Length=10.0317 Units=m
New Line.LINECmpd_12 Bus1=103 Bus2=116 phases=3 Linecode=5c_.1 Length=18.1502 Units=m
New Line.LINECmpd_13 Bus1=80 Bus2=93 phases=3 Linecode=5c_.1 Length=12.5048 Units=m
New Line.LINECmpd_14 Bus1=247 Bus2=263 phases=3 Linecode=2c_.0145 Length=13.019 Units=m
New Line.LINECmpd_15 Bus1=171 Bus2=188 phases=3 Linecode=5c_.1 Length=6.5219 Units=m
New Line.LINECmpd_16 Bus1=116 Bus2=128 phases=3 Linecode=2c_.0145 Length=13.7215 Units=m
New Line.LINECmpd_17 Bus1=141 Bus2=156 phases=3 Linecode=2c_.0145 Length=13.9099 Units=m
New Line.LINECmpd_18 Bus1=171 Bus2=189 phases=3 Linecode=2c_.0145 Length=12.978 Units=m
New Line.LINECmpd_19 Bus1=234 Bus2=247 phases=3 Linecode=5c_.1 Length=7.3582 Units=m
New Line.LINECmpd_20 Bus1=141 Bus2=164 phases=3 Linecode=5c_.1 Length=8.6591 Units=m
New Line.LINECmpd_21 Bus1=93 Bus2=103 phases=3 Linecode=5c_.1 Length=8.0908 Units=m
New Line.LINECmpd_22 Bus1=220 Bus2=233 phases=3 Linecode=2c_.0145 Length=14.0342 Units=m
