New Line.LINE56_58 Bus1=56_58 Bus2=56_59 phases=3 Linecode=25_SAC_XC Length=4.6979 Units=m
New Line.LINE56_59 Bus1=56_58 Bus2=56_60 phases=3 Linecode=4c_.2_SAC Length=0.11132 Units=m
New Line.LINE56_60 Bus1=56_60 Bus2=56_61 phases=3 Linecode=4c_.2_SAC Length=4.7567 Units=m
New Line.LINE56_61 Bus1=56_61 Bus2=56_62 phases=3 Linecode=4c_.2_SAC Length=1.8862 Units=m
New Line.LINE56_62 Bus1=56_62 Bus2=56_63 phases=3 Linecode=4c_.2_SAC Length=1.4911 Units=m
New Line.LINE56_63 Bus1=56_63 Bus2=56_64 phases=3 Linecode=4c_.2_SAC Length=0.44752 Units=m
New Line.LINE56_64 Bus1=56_64 Bus2=56_65 phases=3 Linecode=4c_.2_SAC Length=0.679 Units=m
New Line.LINE56_65 Bus1=56_65 Bus2=56_66 phases=3 Linecode=5c_.1 Length=1.1416 Units=m
New Line.LINE56_66 Bus1=56_66 Bus2=56_67 phases=3 Linecode=5c_.1 Length=4.7804 Units=m
New Line.LINE56_67 Bus1=56_67 Bus2=56_68 phases=3 Linecode=5c_.1 Length=0.57781 Units=m
New Line.LINE56_68 Bus1=56_68 Bus2=56_69 phases=3 Linecode=5c_.1 Length=0.58544 Units=m
New Line.LINE56_69 Bus1=56_69 Bus2=56_70 phases=3 Linecode=5c_.1 Length=5.5074 Units=m
New Line.LINE56_71 Bus1=56_70 Bus2=56_72 phases=3 Linecode=5c_.1 Length=0.83931 Units=m
New Line.LINE56_73 Bus1=56_72 Bus2=56_74 phases=3 Linecode=5c_.1 Length=0.89923 Units=m
New Line.LINE56_76 Bus1=56_74 Bus2=56_77 phases=3 Linecode=5c_.1 Length=6.4647 Units=m
New Line.LINE56_79 Bus1=56_77 Bus2=56_80 phases=3 Linecode=5c_.1 Length=4.3694 Units=m
New Line.LINE56_107 Bus1=56_103 Bus2=56_108 phases=3 Linecode=2c_.0145 Length=9.3908 Units=m
New Line.LINE56_113 Bus1=56_108 Bus2=56_114 phases=3 Linecode=2c_.0145 Length=4.3751 Units=m
New Line.LINE56_140 Bus1=56_134 Bus2=56_141 phases=3 Linecode=5c_.1 Length=7.6863 Units=m
New Line.LINE56_170 Bus1=56_164 Bus2=56_171 phases=3 Linecode=5c_.1 Length=9.4965 Units=m
New Line.LINE56_226 Bus1=56_220 Bus2=56_227 phases=3 Linecode=5c_.1 Length=2.9178 Units=m
New Line.LINE56_233 Bus1=56_227 Bus2=56_234 phases=3 Linecode=5c_.1 Length=7.6616 Units=m
New Line.LINE56_234 Bus1=56_227 Bus2=56_235 phases=3 Linecode=25_SAC_XC Length=1.4764 Units=m
New Line.LINE56_294 Bus1=56_287 Bus2=56_295 phases=3 Linecode=5c_.1 Length=5.7197 Units=m
New Line.LINE56_300 Bus1=56_295 Bus2=56_301 phases=3 Linecode=5c_.1 Length=5.0149 Units=m
New Line.LINE56_306 Bus1=56_301 Bus2=56_307 phases=3 Linecode=5c_.1 Length=3.3676 Units=m
New Line.LINE56_312 Bus1=56_307 Bus2=56_313 phases=3 Linecode=.3 Length=1.2686 Units=m
New Line.LINE56_317 Bus1=56_313 Bus2=56_318 phases=3 Linecode=.3 Length=1.9041 Units=m
New Line.LINE56_321 Bus1=56_318 Bus2=56_322 phases=3 Linecode=25_SAC_XC Length=9.0492 Units=m
New Line.LINE56_325 Bus1=56_322 Bus2=56_326 phases=3 Linecode=25_SAC_XC Length=0.4658 Units=m
New Line.LINE56_329 Bus1=56_326 Bus2=56_330 phases=3 Linecode=25_SAC_XC Length=1.1113 Units=m
New Line.LINE56_332 Bus1=56_330 Bus2=56_333 phases=3 Linecode=25_SAC_XC Length=7.2022 Units=m
New Line.LINE56_Cmpd_0 Bus1=56_234 Bus2=56_343 phases=3 Linecode=16_PSC Length=18.87145 Units=m
New Line.LINE56_Cmpd_1 Bus1=56_188 Bus2=56_220 phases=3 Linecode=5c_.1 Length=8.8014 Units=m
New Line.LINE56_Cmpd_2 Bus1=56_134 Bus2=56_292 phases=3 Linecode=16_PSC Length=16.359407 Units=m
New Line.LINE56_Cmpd_3 Bus1=56_1 Bus2=56_58 phases=3 Linecode=4c_.2_SAC Length=47.587413 Units=m
New Line.LINE56_Cmpd_4 Bus1=56_164 Bus2=56_321 phases=3 Linecode=16_PSC Length=17.168832 Units=m
New Line.LINE56_Cmpd_5 Bus1=56_247 Bus2=56_287 phases=3 Linecode=5c_.1 Length=9.55374 Units=m
New Line.LINE56_Cmpd_6 Bus1=56_108 Bus2=56_194 phases=3 Linecode=2c_.0145 Length=10.30238 Units=m
New Line.LINE56_Cmpd_7 Bus1=56_80 Bus2=56_87 phases=3 Linecode=2c_.0145 Length=14.0204 Units=m
New Line.LINE56_Cmpd_8 Bus1=56_93 Bus2=56_216 phases=3 Linecode=25_SAC_XC Length=19.480289 Units=m
New Line.LINE56_Cmpd_9 Bus1=56_287 Bus2=56_347 phases=3 Linecode=16_PSC Length=16.94679 Units=m
New Line.LINE56_Cmpd_10 Bus1=56_188 Bus2=56_213 phases=3 Linecode=2c_.0225 Length=13.1159 Units=m
New Line.LINE56_Cmpd_11 Bus1=56_116 Bus2=56_134 phases=3 Linecode=5c_.1 Length=10.0317 Units=m
New Line.LINE56_Cmpd_12 Bus1=56_103 Bus2=56_116 phases=3 Linecode=5c_.1 Length=18.1502 Units=m
New Line.LINE56_Cmpd_13 Bus1=56_80 Bus2=56_93 phases=3 Linecode=5c_.1 Length=12.5048 Units=m
New Line.LINE56_Cmpd_14 Bus1=56_247 Bus2=56_263 phases=3 Linecode=2c_.0145 Length=13.019 Units=m
New Line.LINE56_Cmpd_15 Bus1=56_171 Bus2=56_188 phases=3 Linecode=5c_.1 Length=6.5219 Units=m
New Line.LINE56_Cmpd_16 Bus1=56_116 Bus2=56_128 phases=3 Linecode=2c_.0145 Length=13.7215 Units=m
New Line.LINE56_Cmpd_17 Bus1=56_141 Bus2=56_156 phases=3 Linecode=2c_.0145 Length=13.9099 Units=m
New Line.LINE56_Cmpd_18 Bus1=56_171 Bus2=56_189 phases=3 Linecode=2c_.0145 Length=12.978 Units=m
New Line.LINE56_Cmpd_19 Bus1=56_234 Bus2=56_247 phases=3 Linecode=5c_.1 Length=7.3582 Units=m
New Line.LINE56_Cmpd_20 Bus1=56_141 Bus2=56_164 phases=3 Linecode=5c_.1 Length=8.6591 Units=m
New Line.LINE56_Cmpd_21 Bus1=56_93 Bus2=56_103 phases=3 Linecode=5c_.1 Length=8.0908 Units=m
New Line.LINE56_Cmpd_22 Bus1=56_220 Bus2=56_233 phases=3 Linecode=2c_.0145 Length=14.0342 Units=m
