New Line.LINE56_1 Bus1=56_1 Bus2=56_2 phases=3 Linecode=4c_.2_SAC Length=0.62651 Units=m
New Line.LINE56_2 Bus1=56_2 Bus2=56_3 phases=3 Linecode=4c_.2_SAC Length=0.0522 Units=m
New Line.LINE56_3 Bus1=56_3 Bus2=56_4 phases=3 Linecode=4c_.2_SAC Length=0.043046 Units=m
New Line.LINE56_4 Bus1=56_4 Bus2=56_5 phases=3 Linecode=4c_.2_SAC Length=0.031241 Units=m
New Line.LINE56_5 Bus1=56_5 Bus2=56_6 phases=3 Linecode=4c_.2_SAC Length=0.045278 Units=m
New Line.LINE56_6 Bus1=56_6 Bus2=56_7 phases=3 Linecode=4c_.2_SAC Length=0.051108 Units=m
New Line.LINE56_7 Bus1=56_7 Bus2=56_8 phases=3 Linecode=4c_.2_SAC Length=0.061033 Units=m
New Line.LINE56_8 Bus1=56_8 Bus2=56_9 phases=3 Linecode=4c_.2_SAC Length=0.053236 Units=m
New Line.LINE56_9 Bus1=56_9 Bus2=56_10 phases=3 Linecode=4c_.2_SAC Length=0.065764 Units=m
New Line.LINE56_10 Bus1=56_10 Bus2=56_11 phases=3 Linecode=4c_.2_SAC Length=0.79253 Units=m
New Line.LINE56_11 Bus1=56_11 Bus2=56_12 phases=3 Linecode=4c_.2_SAC Length=0.080056 Units=m
New Line.LINE56_12 Bus1=56_12 Bus2=56_13 phases=3 Linecode=4c_.2_SAC Length=0.056859 Units=m
New Line.LINE56_13 Bus1=56_13 Bus2=56_14 phases=3 Linecode=4c_.2_SAC Length=0.067624 Units=m
New Line.LINE56_14 Bus1=56_14 Bus2=56_15 phases=3 Linecode=4c_.2_SAC Length=0.073756 Units=m
New Line.LINE56_15 Bus1=56_15 Bus2=56_16 phases=3 Linecode=4c_.2_SAC Length=0.058249 Units=m
New Line.LINE56_16 Bus1=56_16 Bus2=56_17 phases=3 Linecode=4c_.2_SAC Length=0.069319 Units=m
New Line.LINE56_17 Bus1=56_17 Bus2=56_18 phases=3 Linecode=4c_.2_SAC Length=0.42913 Units=m
New Line.LINE56_18 Bus1=56_18 Bus2=56_19 phases=3 Linecode=4c_.2_SAC Length=0.058182 Units=m
New Line.LINE56_19 Bus1=56_19 Bus2=56_20 phases=3 Linecode=4c_.2_SAC Length=0.052007 Units=m
New Line.LINE56_20 Bus1=56_20 Bus2=56_21 phases=3 Linecode=4c_.2_SAC Length=0.043933 Units=m
New Line.LINE56_21 Bus1=56_21 Bus2=56_22 phases=3 Linecode=4c_.2_SAC Length=0.056436 Units=m
New Line.LINE56_22 Bus1=56_22 Bus2=56_23 phases=3 Linecode=4c_.2_SAC Length=0.036139 Units=m
New Line.LINE56_23 Bus1=56_23 Bus2=56_24 phases=3 Linecode=4c_.2_SAC Length=0.038471 Units=m
New Line.LINE56_24 Bus1=56_24 Bus2=56_25 phases=3 Linecode=4c_.2_SAC Length=0.052009 Units=m
New Line.LINE56_25 Bus1=56_25 Bus2=56_26 phases=3 Linecode=4c_.2_SAC Length=0.044912 Units=m
New Line.LINE56_26 Bus1=56_26 Bus2=56_27 phases=3 Linecode=4c_.2_SAC Length=0.42726 Units=m
New Line.LINE56_27 Bus1=56_27 Bus2=56_28 phases=3 Linecode=4c_.2_SAC Length=1.1695 Units=m
New Line.LINE56_28 Bus1=56_28 Bus2=56_29 phases=3 Linecode=4c_.2_SAC Length=0.56452 Units=m
New Line.LINE56_29 Bus1=56_29 Bus2=56_30 phases=3 Linecode=4c_.2_SAC Length=2.0261 Units=m
New Line.LINE56_30 Bus1=56_30 Bus2=56_31 phases=3 Linecode=4c_.2_SAC Length=1.1162 Units=m
New Line.LINE56_31 Bus1=56_31 Bus2=56_32 phases=3 Linecode=4c_.2_SAC Length=0.53946 Units=m
New Line.LINE56_32 Bus1=56_32 Bus2=56_33 phases=3 Linecode=4c_.2_SAC Length=0.34458 Units=m
New Line.LINE56_33 Bus1=56_33 Bus2=56_34 phases=3 Linecode=4c_.2_SAC Length=3.1894 Units=m
New Line.LINE56_34 Bus1=56_34 Bus2=56_35 phases=3 Linecode=4c_.2_SAC Length=9.5426 Units=m
New Line.LINE56_35 Bus1=56_35 Bus2=56_36 phases=3 Linecode=4c_.2_SAC Length=0.43107 Units=m
New Line.LINE56_36 Bus1=56_36 Bus2=56_37 phases=3 Linecode=4c_.2_SAC Length=0.45569 Units=m
New Line.LINE56_37 Bus1=56_37 Bus2=56_38 phases=3 Linecode=4c_.2_SAC Length=0.6144 Units=m
New Line.LINE56_38 Bus1=56_38 Bus2=56_39 phases=3 Linecode=4c_.2_SAC Length=0.10628 Units=m
New Line.LINE56_39 Bus1=56_39 Bus2=56_40 phases=3 Linecode=4c_.2_SAC Length=0.076609 Units=m
New Line.LINE56_40 Bus1=56_40 Bus2=56_41 phases=3 Linecode=4c_.2_SAC Length=0.088601 Units=m
New Line.LINE56_41 Bus1=56_41 Bus2=56_42 phases=3 Linecode=4c_.2_SAC Length=0.090376 Units=m
New Line.LINE56_42 Bus1=56_42 Bus2=56_43 phases=3 Linecode=4c_.2_SAC Length=0.10124 Units=m
New Line.LINE56_43 Bus1=56_43 Bus2=56_44 phases=3 Linecode=4c_.2_SAC Length=0.10949 Units=m
New Line.LINE56_44 Bus1=56_44 Bus2=56_45 phases=3 Linecode=4c_.2_SAC Length=0.26123 Units=m
New Line.LINE56_45 Bus1=56_45 Bus2=56_46 phases=3 Linecode=4c_.2_SAC Length=0.61288 Units=m
New Line.LINE56_46 Bus1=56_46 Bus2=56_47 phases=3 Linecode=4c_.2_SAC Length=0.92723 Units=m
New Line.LINE56_47 Bus1=56_47 Bus2=56_48 phases=3 Linecode=4c_.2_SAC Length=2.0396 Units=m
New Line.LINE56_48 Bus1=56_48 Bus2=56_49 phases=3 Linecode=4c_.2_SAC Length=10.892 Units=m
New Line.LINE56_49 Bus1=56_49 Bus2=56_50 phases=3 Linecode=4c_.2_SAC Length=7.0688 Units=m
New Line.LINE56_50 Bus1=56_50 Bus2=56_51 phases=3 Linecode=4c_.2_SAC Length=0.17013 Units=m
New Line.LINE56_51 Bus1=56_51 Bus2=56_52 phases=3 Linecode=4c_.2_SAC Length=0.25293 Units=m
New Line.LINE56_52 Bus1=56_52 Bus2=56_53 phases=3 Linecode=4c_.2_SAC Length=0.11621 Units=m
New Line.LINE56_53 Bus1=56_53 Bus2=56_54 phases=3 Linecode=4c_.2_SAC Length=0.094068 Units=m
New Line.LINE56_54 Bus1=56_54 Bus2=56_55 phases=3 Linecode=4c_.2_SAC Length=0.89528 Units=m
New Line.LINE56_55 Bus1=56_55 Bus2=56_56 phases=3 Linecode=4c_.2_SAC Length=0.07951 Units=m
New Line.LINE56_56 Bus1=56_56 Bus2=56_57 phases=3 Linecode=4c_.2_SAC Length=0.070435 Units=m
New Line.LINE56_57 Bus1=56_57 Bus2=56_58 phases=3 Linecode=4c_.2_SAC Length=0.074706 Units=m
New Line.LINE56_58 Bus1=56_58 Bus2=56_59 phases=3 Linecode=25_SAC_XC Length=4.6979 Units=m
New Line.LINE56_59 Bus1=56_58 Bus2=56_60 phases=3 Linecode=4c_.2_SAC Length=0.11132 Units=m
New Line.LINE56_60 Bus1=56_60 Bus2=56_61 phases=3 Linecode=4c_.2_SAC Length=4.7567 Units=m
New Line.LINE56_61 Bus1=56_61 Bus2=56_62 phases=3 Linecode=4c_.2_SAC Length=1.8862 Units=m
New Line.LINE56_62 Bus1=56_62 Bus2=56_63 phases=3 Linecode=4c_.2_SAC Length=1.4911 Units=m
New Line.LINE56_63 Bus1=56_63 Bus2=56_64 phases=3 Linecode=4c_.2_SAC Length=0.44752 Units=m
New Line.LINE56_64 Bus1=56_64 Bus2=56_65 phases=3 Linecode=4c_.2_SAC Length=0.679 Units=m
New Line.LINE56_65 Bus1=56_65 Bus2=56_66 phases=3 Linecode=5c_.1 Length=1.1416 Units=m
New Line.LINE56_66 Bus1=56_66 Bus2=56_67 phases=3 Linecode=5c_.1 Length=4.7804 Units=m
New Line.LINE56_67 Bus1=56_67 Bus2=56_68 phases=3 Linecode=5c_.1 Length=0.57781 Units=m
New Line.LINE56_68 Bus1=56_68 Bus2=56_69 phases=3 Linecode=5c_.1 Length=0.58544 Units=m
New Line.LINE56_69 Bus1=56_69 Bus2=56_70 phases=3 Linecode=5c_.1 Length=5.5074 Units=m
New Line.LINE56_70 Bus1=56_70 Bus2=56_71 phases=3 Linecode=4_SAC_PC Length=0.17197 Units=m
New Line.LINE56_71 Bus1=56_70 Bus2=56_72 phases=3 Linecode=5c_.1 Length=0.83931 Units=m
New Line.LINE56_72 Bus1=56_71 Bus2=56_73 phases=3 Linecode=4_SAC_PC Length=0.031144 Units=m
New Line.LINE56_73 Bus1=56_72 Bus2=56_74 phases=3 Linecode=5c_.1 Length=0.89923 Units=m
New Line.LINE56_74 Bus1=56_73 Bus2=56_75 phases=3 Linecode=4_SAC_PC Length=0.030084 Units=m
New Line.LINE56_75 Bus1=56_74 Bus2=56_76 phases=3 Linecode=5c_.1 Length=0.25314 Units=m
New Line.LINE56_76 Bus1=56_74 Bus2=56_77 phases=3 Linecode=5c_.1 Length=6.4647 Units=m
New Line.LINE56_77 Bus1=56_75 Bus2=56_78 phases=3 Linecode=4_SAC_PC Length=0.030871 Units=m
New Line.LINE56_78 Bus1=56_76 Bus2=56_79 phases=3 Linecode=5c_.1 Length=0.12906 Units=m
New Line.LINE56_79 Bus1=56_77 Bus2=56_80 phases=3 Linecode=5c_.1 Length=4.3694 Units=m
New Line.LINE56_80 Bus1=56_78 Bus2=56_81 phases=3 Linecode=4_SAC_PC Length=0.030806 Units=m
New Line.LINE56_81 Bus1=56_79 Bus2=56_82 phases=3 Linecode=5c_.1 Length=0.089628 Units=m
New Line.LINE56_82 Bus1=56_80 Bus2=56_83 phases=3 Linecode=2c_.0145 Length=8.2166 Units=m
New Line.LINE56_83 Bus1=56_80 Bus2=56_84 phases=3 Linecode=5c_.1 Length=2.1852 Units=m
New Line.LINE56_84 Bus1=56_81 Bus2=56_85 phases=3 Linecode=4_SAC_PC Length=0.031827 Units=m
New Line.LINE56_85 Bus1=56_82 Bus2=56_86 phases=3 Linecode=5c_.1 Length=0.059909 Units=m
New Line.LINE56_86 Bus1=56_83 Bus2=56_87 phases=3 Linecode=2c_.0145 Length=5.8038 Units=m
New Line.LINE56_87 Bus1=56_84 Bus2=56_88 phases=3 Linecode=5c_.1 Length=0.52369 Units=m
New Line.LINE56_88 Bus1=56_84 Bus2=56_89 phases=3 Linecode=5c_.1 Length=1.5344 Units=m
New Line.LINE56_89 Bus1=56_85 Bus2=56_90 phases=3 Linecode=4_SAC_PC Length=0.030233 Units=m
New Line.LINE56_90 Bus1=56_86 Bus2=56_91 phases=3 Linecode=5c_.1 Length=0.063284 Units=m
New Line.LINE56_91 Bus1=56_88 Bus2=56_92 phases=3 Linecode=5c_.1 Length=0.058045 Units=m
New Line.LINE56_92 Bus1=56_89 Bus2=56_93 phases=3 Linecode=5c_.1 Length=8.7852 Units=m
New Line.LINE56_93 Bus1=56_90 Bus2=56_94 phases=3 Linecode=4_SAC_PC Length=0.031385 Units=m
New Line.LINE56_94 Bus1=56_91 Bus2=56_95 phases=3 Linecode=5c_.1 Length=0.11449 Units=m
New Line.LINE56_95 Bus1=56_92 Bus2=56_96 phases=3 Linecode=5c_.1 Length=0.055326 Units=m
New Line.LINE56_96 Bus1=56_93 Bus2=56_97 phases=3 Linecode=25_SAC_XC Length=0.43385 Units=m
New Line.LINE56_97 Bus1=56_93 Bus2=56_98 phases=3 Linecode=5c_.1 Length=6.0776 Units=m
New Line.LINE56_98 Bus1=56_94 Bus2=56_99 phases=3 Linecode=4_SAC_PC Length=0.030806 Units=m
New Line.LINE56_99 Bus1=56_95 Bus2=56_100 phases=3 Linecode=5c_.1 Length=0.14546 Units=m
New Line.LINE56_100 Bus1=56_96 Bus2=56_101 phases=3 Linecode=5c_.1 Length=0.055144 Units=m
New Line.LINE56_101 Bus1=56_97 Bus2=56_102 phases=3 Linecode=25_SAC_XC Length=0.25145 Units=m
New Line.LINE56_102 Bus1=56_98 Bus2=56_103 phases=3 Linecode=5c_.1 Length=2.0132 Units=m
New Line.LINE56_103 Bus1=56_99 Bus2=56_104 phases=3 Linecode=4_SAC_PC Length=0.031016 Units=m
New Line.LINE56_104 Bus1=56_100 Bus2=56_105 phases=3 Linecode=5c_.1 Length=0.10294 Units=m
New Line.LINE56_105 Bus1=56_101 Bus2=56_106 phases=3 Linecode=5c_.1 Length=0.054819 Units=m
New Line.LINE56_106 Bus1=56_102 Bus2=56_107 phases=3 Linecode=25_SAC_XC Length=0.090609 Units=m
New Line.LINE56_107 Bus1=56_103 Bus2=56_108 phases=3 Linecode=2c_.0145 Length=9.3908 Units=m
New Line.LINE56_108 Bus1=56_103 Bus2=56_109 phases=3 Linecode=5c_.1 Length=14.1824 Units=m
New Line.LINE56_109 Bus1=56_104 Bus2=56_110 phases=3 Linecode=4_SAC_PC Length=0.030266 Units=m
New Line.LINE56_110 Bus1=56_105 Bus2=56_111 phases=3 Linecode=5c_.1 Length=0.0846 Units=m
New Line.LINE56_111 Bus1=56_106 Bus2=56_112 phases=3 Linecode=5c_.1 Length=0.054561 Units=m
New Line.LINE56_112 Bus1=56_107 Bus2=56_113 phases=3 Linecode=25_SAC_XC Length=0.20242 Units=m
New Line.LINE56_113 Bus1=56_108 Bus2=56_114 phases=3 Linecode=2c_.0145 Length=4.3751 Units=m
New Line.LINE56_114 Bus1=56_108 Bus2=56_115 phases=3 Linecode=2c_.0145 Length=0.5084 Units=m
New Line.LINE56_115 Bus1=56_109 Bus2=56_116 phases=3 Linecode=5c_.1 Length=3.9678 Units=m
New Line.LINE56_116 Bus1=56_110 Bus2=56_117 phases=3 Linecode=4_SAC_PC Length=0.98264 Units=m
New Line.LINE56_117 Bus1=56_111 Bus2=56_118 phases=3 Linecode=5c_.1 Length=0.62478 Units=m
New Line.LINE56_118 Bus1=56_112 Bus2=56_119 phases=3 Linecode=5c_.1 Length=0.055001 Units=m
New Line.LINE56_119 Bus1=56_113 Bus2=56_120 phases=3 Linecode=25_SAC_XC Length=0.35909 Units=m
New Line.LINE56_120 Bus1=56_115 Bus2=56_121 phases=3 Linecode=2c_.0145 Length=0.28771 Units=m
New Line.LINE56_121 Bus1=56_116 Bus2=56_122 phases=3 Linecode=2c_.0145 Length=8.2453 Units=m
New Line.LINE56_122 Bus1=56_116 Bus2=56_123 phases=3 Linecode=5c_.1 Length=3.5795 Units=m
New Line.LINE56_123 Bus1=56_117 Bus2=56_124 phases=3 Linecode=4_SAC_PC Length=0.052885 Units=m
New Line.LINE56_124 Bus1=56_119 Bus2=56_125 phases=3 Linecode=5c_.1 Length=0.054488 Units=m
New Line.LINE56_125 Bus1=56_120 Bus2=56_126 phases=3 Linecode=25_SAC_XC Length=5.4743 Units=m
New Line.LINE56_126 Bus1=56_121 Bus2=56_127 phases=3 Linecode=2c_.0145 Length=0.30319 Units=m
New Line.LINE56_127 Bus1=56_122 Bus2=56_128 phases=3 Linecode=2c_.0145 Length=5.4762 Units=m
New Line.LINE56_128 Bus1=56_123 Bus2=56_129 phases=3 Linecode=5c_.1 Length=3.2978 Units=m
New Line.LINE56_129 Bus1=56_124 Bus2=56_130 phases=3 Linecode=4_SAC_PC Length=0.053667 Units=m
New Line.LINE56_130 Bus1=56_125 Bus2=56_131 phases=3 Linecode=5c_.1 Length=0.055227 Units=m
New Line.LINE56_131 Bus1=56_126 Bus2=56_132 phases=3 Linecode=25_SAC_XC Length=0.42153 Units=m
New Line.LINE56_132 Bus1=56_127 Bus2=56_133 phases=3 Linecode=2c_.0145 Length=0.52411 Units=m
New Line.LINE56_133 Bus1=56_129 Bus2=56_134 phases=3 Linecode=5c_.1 Length=3.1544 Units=m
New Line.LINE56_134 Bus1=56_129 Bus2=56_135 phases=3 Linecode=5c_.1 Length=0.33987 Units=m
New Line.LINE56_135 Bus1=56_130 Bus2=56_136 phases=3 Linecode=4_SAC_PC Length=0.054204 Units=m
New Line.LINE56_136 Bus1=56_131 Bus2=56_137 phases=3 Linecode=5c_.1 Length=0.054424 Units=m
New Line.LINE56_137 Bus1=56_132 Bus2=56_138 phases=3 Linecode=25_SAC_XC Length=0.141 Units=m
New Line.LINE56_138 Bus1=56_133 Bus2=56_139 phases=3 Linecode=2c_.0145 Length=0.47344 Units=m
New Line.LINE56_139 Bus1=56_134 Bus2=56_140 phases=3 Linecode=16_PSC Length=0.28851 Units=m
New Line.LINE56_140 Bus1=56_134 Bus2=56_141 phases=3 Linecode=5c_.1 Length=7.6863 Units=m
New Line.LINE56_141 Bus1=56_135 Bus2=56_142 phases=3 Linecode=5c_.1 Length=0.039812 Units=m
New Line.LINE56_142 Bus1=56_136 Bus2=56_143 phases=3 Linecode=4_SAC_PC Length=0.053151 Units=m
New Line.LINE56_143 Bus1=56_137 Bus2=56_144 phases=3 Linecode=5c_.1 Length=0.18682 Units=m
New Line.LINE56_144 Bus1=56_138 Bus2=56_145 phases=3 Linecode=25_SAC_XC Length=0.1064 Units=m
New Line.LINE56_145 Bus1=56_139 Bus2=56_146 phases=3 Linecode=2c_.0145 Length=0.25956 Units=m
New Line.LINE56_146 Bus1=56_140 Bus2=56_147 phases=3 Linecode=16_PSC Length=0.12907 Units=m
New Line.LINE56_147 Bus1=56_141 Bus2=56_148 phases=3 Linecode=2c_.0145 Length=9.0089 Units=m
New Line.LINE56_148 Bus1=56_141 Bus2=56_149 phases=3 Linecode=5c_.1 Length=2.054 Units=m
New Line.LINE56_149 Bus1=56_142 Bus2=56_150 phases=3 Linecode=5c_.1 Length=0.088843 Units=m
New Line.LINE56_150 Bus1=56_143 Bus2=56_151 phases=3 Linecode=4_SAC_PC Length=0.054204 Units=m
New Line.LINE56_151 Bus1=56_144 Bus2=56_152 phases=3 Linecode=5c_.1 Length=0.2989 Units=m
New Line.LINE56_152 Bus1=56_145 Bus2=56_153 phases=3 Linecode=25_SAC_XC Length=0.13442 Units=m
New Line.LINE56_153 Bus1=56_146 Bus2=56_154 phases=3 Linecode=2c_.0145 Length=0.77109 Units=m
New Line.LINE56_154 Bus1=56_147 Bus2=56_155 phases=3 Linecode=16_PSC Length=0.2279 Units=m
New Line.LINE56_155 Bus1=56_148 Bus2=56_156 phases=3 Linecode=2c_.0145 Length=4.901 Units=m
New Line.LINE56_156 Bus1=56_149 Bus2=56_157 phases=3 Linecode=5c_.1 Length=1.4267 Units=m
New Line.LINE56_157 Bus1=56_150 Bus2=56_158 phases=3 Linecode=5c_.1 Length=0.038601 Units=m
New Line.LINE56_158 Bus1=56_151 Bus2=56_159 phases=3 Linecode=4_SAC_PC Length=0.053758 Units=m
New Line.LINE56_159 Bus1=56_153 Bus2=56_160 phases=3 Linecode=25_SAC_XC Length=0.12937 Units=m
New Line.LINE56_160 Bus1=56_154 Bus2=56_161 phases=3 Linecode=2c_.0145 Length=0.66462 Units=m
New Line.LINE56_161 Bus1=56_155 Bus2=56_162 phases=3 Linecode=16_PSC Length=0.35 Units=m
New Line.LINE56_162 Bus1=56_157 Bus2=56_163 phases=3 Linecode=4_SAC_PC Length=0.14759 Units=m
New Line.LINE56_163 Bus1=56_157 Bus2=56_164 phases=3 Linecode=5c_.1 Length=5.1784 Units=m
New Line.LINE56_164 Bus1=56_158 Bus2=56_165 phases=3 Linecode=5c_.1 Length=0.037589 Units=m
New Line.LINE56_165 Bus1=56_159 Bus2=56_166 phases=3 Linecode=4_SAC_PC Length=0.053459 Units=m
New Line.LINE56_166 Bus1=56_160 Bus2=56_167 phases=3 Linecode=25_SAC_XC Length=1.9739 Units=m
New Line.LINE56_167 Bus1=56_161 Bus2=56_168 phases=3 Linecode=2c_.0145 Length=0.93481 Units=m
New Line.LINE56_168 Bus1=56_162 Bus2=56_169 phases=3 Linecode=16_PSC Length=0.5081 Units=m
New Line.LINE56_169 Bus1=56_163 Bus2=56_170 phases=3 Linecode=4_SAC_PC Length=0.10404 Units=m
New Line.LINE56_170 Bus1=56_164 Bus2=56_171 phases=3 Linecode=5c_.1 Length=9.4965 Units=m
New Line.LINE56_171 Bus1=56_164 Bus2=56_172 phases=3 Linecode=16_PSC Length=0.5954 Units=m
New Line.LINE56_172 Bus1=56_165 Bus2=56_173 phases=3 Linecode=5c_.1 Length=0.038418 Units=m
New Line.LINE56_173 Bus1=56_166 Bus2=56_174 phases=3 Linecode=4_SAC_PC Length=0.054148 Units=m
New Line.LINE56_174 Bus1=56_167 Bus2=56_175 phases=3 Linecode=25_SAC_XC Length=2.666 Units=m
New Line.LINE56_175 Bus1=56_168 Bus2=56_176 phases=3 Linecode=2c_.0145 Length=0.72025 Units=m
New Line.LINE56_176 Bus1=56_169 Bus2=56_177 phases=3 Linecode=16_PSC Length=2.1234 Units=m
New Line.LINE56_177 Bus1=56_170 Bus2=56_178 phases=3 Linecode=4_SAC_PC Length=0.10295 Units=m
New Line.LINE56_178 Bus1=56_171 Bus2=56_179 phases=3 Linecode=5c_.1 Length=3.3171 Units=m
New Line.LINE56_179 Bus1=56_171 Bus2=56_180 phases=3 Linecode=2c_.0145 Length=7.4975 Units=m
New Line.LINE56_180 Bus1=56_172 Bus2=56_181 phases=3 Linecode=16_PSC Length=0.164 Units=m
New Line.LINE56_181 Bus1=56_173 Bus2=56_182 phases=3 Linecode=5c_.1 Length=0.037644 Units=m
New Line.LINE56_182 Bus1=56_174 Bus2=56_183 phases=3 Linecode=4_SAC_PC Length=0.053851 Units=m
New Line.LINE56_183 Bus1=56_175 Bus2=56_184 phases=3 Linecode=25_SAC_XC Length=0.15726 Units=m
New Line.LINE56_184 Bus1=56_176 Bus2=56_185 phases=3 Linecode=2c_.0145 Length=0.467 Units=m
New Line.LINE56_185 Bus1=56_177 Bus2=56_186 phases=3 Linecode=16_PSC Length=1.9429 Units=m
New Line.LINE56_186 Bus1=56_178 Bus2=56_187 phases=3 Linecode=4_SAC_PC Length=0.10429 Units=m
New Line.LINE56_187 Bus1=56_179 Bus2=56_188 phases=3 Linecode=5c_.1 Length=3.2048 Units=m
New Line.LINE56_188 Bus1=56_180 Bus2=56_189 phases=3 Linecode=2c_.0145 Length=5.4805 Units=m
New Line.LINE56_189 Bus1=56_181 Bus2=56_190 phases=3 Linecode=16_PSC Length=0.10183 Units=m
New Line.LINE56_190 Bus1=56_182 Bus2=56_191 phases=3 Linecode=5c_.1 Length=0.038948 Units=m
New Line.LINE56_191 Bus1=56_183 Bus2=56_192 phases=3 Linecode=4_SAC_PC Length=0.536 Units=m
New Line.LINE56_192 Bus1=56_184 Bus2=56_193 phases=3 Linecode=25_SAC_XC Length=0.23658 Units=m
New Line.LINE56_193 Bus1=56_185 Bus2=56_194 phases=3 Linecode=2c_.0145 Length=4.3882 Units=m
New Line.LINE56_194 Bus1=56_186 Bus2=56_195 phases=3 Linecode=16_PSC Length=1.3202 Units=m
New Line.LINE56_195 Bus1=56_187 Bus2=56_196 phases=3 Linecode=4_SAC_PC Length=0.10317 Units=m
New Line.LINE56_196 Bus1=56_188 Bus2=56_197 phases=3 Linecode=5c_.1 Length=1.0895 Units=m
New Line.LINE56_197 Bus1=56_188 Bus2=56_198 phases=3 Linecode=2c_.0225 Length=6.0582 Units=m
New Line.LINE56_198 Bus1=56_190 Bus2=56_199 phases=3 Linecode=16_PSC Length=0.14678 Units=m
New Line.LINE56_199 Bus1=56_191 Bus2=56_200 phases=3 Linecode=5c_.1 Length=0.037644 Units=m
New Line.LINE56_200 Bus1=56_193 Bus2=56_201 phases=3 Linecode=25_SAC_XC Length=0.15457 Units=m
New Line.LINE56_201 Bus1=56_195 Bus2=56_202 phases=3 Linecode=16_PSC Length=0.223 Units=m
New Line.LINE56_202 Bus1=56_196 Bus2=56_203 phases=3 Linecode=4_SAC_PC Length=0.1037 Units=m
New Line.LINE56_203 Bus1=56_197 Bus2=56_204 phases=3 Linecode=5c_.1 Length=1.4087 Units=m
New Line.LINE56_204 Bus1=56_198 Bus2=56_205 phases=3 Linecode=2c_.0225 Length=2.2308 Units=m
New Line.LINE56_205 Bus1=56_199 Bus2=56_206 phases=3 Linecode=16_PSC Length=0.25032 Units=m
New Line.LINE56_206 Bus1=56_200 Bus2=56_207 phases=3 Linecode=5c_.1 Length=0.038211 Units=m
New Line.LINE56_207 Bus1=56_201 Bus2=56_208 phases=3 Linecode=25_SAC_XC Length=0.25974 Units=m
New Line.LINE56_208 Bus1=56_202 Bus2=56_209 phases=3 Linecode=16_PSC Length=0.18894 Units=m
New Line.LINE56_209 Bus1=56_203 Bus2=56_210 phases=3 Linecode=4_SAC_PC Length=0.81982 Units=m
New Line.LINE56_210 Bus1=56_204 Bus2=56_211 phases=3 Linecode=5c_.1 Length=0.3673 Units=m
New Line.LINE56_211 Bus1=56_204 Bus2=56_212 phases=3 Linecode=5c_.1 Length=3.7676 Units=m
New Line.LINE56_212 Bus1=56_205 Bus2=56_213 phases=3 Linecode=2c_.0225 Length=4.8269 Units=m
New Line.LINE56_213 Bus1=56_206 Bus2=56_214 phases=3 Linecode=16_PSC Length=0.37769 Units=m
New Line.LINE56_214 Bus1=56_207 Bus2=56_215 phases=3 Linecode=5c_.1 Length=0.038117 Units=m
New Line.LINE56_215 Bus1=56_208 Bus2=56_216 phases=3 Linecode=25_SAC_XC Length=6.2878 Units=m
New Line.LINE56_216 Bus1=56_209 Bus2=56_217 phases=3 Linecode=16_PSC Length=0.081785 Units=m
New Line.LINE56_217 Bus1=56_210 Bus2=56_218 phases=3 Linecode=4_SAC_PC Length=0.044407 Units=m
New Line.LINE56_218 Bus1=56_211 Bus2=56_219 phases=3 Linecode=5c_.1 Length=0.21349 Units=m
New Line.LINE56_219 Bus1=56_212 Bus2=56_220 phases=3 Linecode=5c_.1 Length=2.5356 Units=m
New Line.LINE56_220 Bus1=56_214 Bus2=56_221 phases=3 Linecode=16_PSC Length=1.9505 Units=m
New Line.LINE56_221 Bus1=56_215 Bus2=56_222 phases=3 Linecode=5c_.1 Length=0.037363 Units=m
New Line.LINE56_222 Bus1=56_217 Bus2=56_223 phases=3 Linecode=16_PSC Length=0.17253 Units=m
New Line.LINE56_223 Bus1=56_218 Bus2=56_224 phases=3 Linecode=4_SAC_PC Length=0.044777 Units=m
New Line.LINE56_224 Bus1=56_219 Bus2=56_225 phases=3 Linecode=5c_.1 Length=0.076532 Units=m
New Line.LINE56_225 Bus1=56_220 Bus2=56_226 phases=3 Linecode=2c_.0145 Length=9.1519 Units=m
New Line.LINE56_226 Bus1=56_220 Bus2=56_227 phases=3 Linecode=5c_.1 Length=2.9178 Units=m
New Line.LINE56_227 Bus1=56_221 Bus2=56_228 phases=3 Linecode=16_PSC Length=3.608 Units=m
New Line.LINE56_228 Bus1=56_222 Bus2=56_229 phases=3 Linecode=5c_.1 Length=1.5167 Units=m
New Line.LINE56_229 Bus1=56_223 Bus2=56_230 phases=3 Linecode=16_PSC Length=0.076896 Units=m
New Line.LINE56_230 Bus1=56_224 Bus2=56_231 phases=3 Linecode=4_SAC_PC Length=0.043932 Units=m
New Line.LINE56_231 Bus1=56_225 Bus2=56_232 phases=3 Linecode=5c_.1 Length=0.10113 Units=m
New Line.LINE56_232 Bus1=56_226 Bus2=56_233 phases=3 Linecode=2c_.0145 Length=4.8823 Units=m
New Line.LINE56_233 Bus1=56_227 Bus2=56_234 phases=3 Linecode=5c_.1 Length=7.6616 Units=m
New Line.LINE56_234 Bus1=56_227 Bus2=56_235 phases=3 Linecode=25_SAC_XC Length=1.4764 Units=m
New Line.LINE56_235 Bus1=56_228 Bus2=56_236 phases=3 Linecode=16_PSC Length=0.38833 Units=m
New Line.LINE56_236 Bus1=56_230 Bus2=56_237 phases=3 Linecode=16_PSC Length=0.34952 Units=m
New Line.LINE56_237 Bus1=56_231 Bus2=56_238 phases=3 Linecode=4_SAC_PC Length=0.044045 Units=m
New Line.LINE56_238 Bus1=56_232 Bus2=56_239 phases=3 Linecode=5c_.1 Length=0.138 Units=m
New Line.LINE56_239 Bus1=56_234 Bus2=56_240 phases=3 Linecode=5c_.1 Length=4.8875 Units=m
New Line.LINE56_240 Bus1=56_234 Bus2=56_241 phases=3 Linecode=16_PSC Length=0.52357 Units=m
New Line.LINE56_241 Bus1=56_235 Bus2=56_242 phases=3 Linecode=25_SAC_XC Length=9.6527 Units=m
New Line.LINE56_242 Bus1=56_236 Bus2=56_243 phases=3 Linecode=16_PSC Length=0.17844 Units=m
New Line.LINE56_243 Bus1=56_237 Bus2=56_244 phases=3 Linecode=16_PSC Length=1.258 Units=m
New Line.LINE56_244 Bus1=56_238 Bus2=56_245 phases=3 Linecode=4_SAC_PC Length=0.044722 Units=m
New Line.LINE56_245 Bus1=56_239 Bus2=56_246 phases=3 Linecode=5c_.1 Length=0.268 Units=m
New Line.LINE56_246 Bus1=56_240 Bus2=56_247 phases=3 Linecode=5c_.1 Length=2.4707 Units=m
New Line.LINE56_247 Bus1=56_241 Bus2=56_248 phases=3 Linecode=16_PSC Length=0.30971 Units=m
New Line.LINE56_248 Bus1=56_242 Bus2=56_249 phases=3 Linecode=25_SAC_XC Length=0.10288 Units=m
New Line.LINE56_249 Bus1=56_242 Bus2=56_250 phases=3 Linecode=25_SAC_XC Length=0.10823 Units=m
New Line.LINE56_250 Bus1=56_242 Bus2=56_251 phases=3 Linecode=25_SAC_XC Length=0.10823 Units=m
New Line.LINE56_251 Bus1=56_243 Bus2=56_252 phases=3 Linecode=16_PSC Length=0.147 Units=m
New Line.LINE56_252 Bus1=56_244 Bus2=56_253 phases=3 Linecode=16_PSC Length=0.82259 Units=m
New Line.LINE56_253 Bus1=56_245 Bus2=56_254 phases=3 Linecode=4_SAC_PC Length=0.043656 Units=m
New Line.LINE56_254 Bus1=56_246 Bus2=56_255 phases=3 Linecode=5c_.1 Length=0.19387 Units=m
New Line.LINE56_255 Bus1=56_247 Bus2=56_256 phases=3 Linecode=2c_.0145 Length=7.4374 Units=m
New Line.LINE56_256 Bus1=56_247 Bus2=56_257 phases=3 Linecode=5c_.1 Length=2.4707 Units=m
New Line.LINE56_257 Bus1=56_248 Bus2=56_258 phases=3 Linecode=16_PSC Length=0.21102 Units=m
New Line.LINE56_258 Bus1=56_249 Bus2=56_259 phases=3 Linecode=25_SAC_XC Length=0.092439 Units=m
New Line.LINE56_259 Bus1=56_252 Bus2=56_260 phases=3 Linecode=16_PSC Length=0.11671 Units=m
New Line.LINE56_260 Bus1=56_253 Bus2=56_261 phases=3 Linecode=16_PSC Length=0.20768 Units=m
New Line.LINE56_261 Bus1=56_254 Bus2=56_262 phases=3 Linecode=4_SAC_PC Length=0.04442 Units=m
New Line.LINE56_262 Bus1=56_256 Bus2=56_263 phases=3 Linecode=2c_.0145 Length=5.5816 Units=m
New Line.LINE56_263 Bus1=56_257 Bus2=56_264 phases=3 Linecode=5c_.1 Length=1.1399 Units=m
New Line.LINE56_264 Bus1=56_257 Bus2=56_265 phases=3 Linecode=5c_.1 Length=0.30513 Units=m
New Line.LINE56_265 Bus1=56_258 Bus2=56_266 phases=3 Linecode=16_PSC Length=0.20435 Units=m
New Line.LINE56_266 Bus1=56_259 Bus2=56_267 phases=3 Linecode=25_SAC_XC Length=0.10885 Units=m
New Line.LINE56_267 Bus1=56_260 Bus2=56_268 phases=3 Linecode=16_PSC Length=0.072124 Units=m
New Line.LINE56_268 Bus1=56_261 Bus2=56_269 phases=3 Linecode=16_PSC Length=0.12651 Units=m
New Line.LINE56_269 Bus1=56_262 Bus2=56_270 phases=3 Linecode=4_SAC_PC Length=0.043863 Units=m
New Line.LINE56_270 Bus1=56_264 Bus2=56_271 phases=3 Linecode=5c_.1 Length=1.2714 Units=m
New Line.LINE56_271 Bus1=56_265 Bus2=56_272 phases=3 Linecode=5c_.1 Length=0.19957 Units=m
New Line.LINE56_272 Bus1=56_266 Bus2=56_273 phases=3 Linecode=16_PSC Length=2.4452 Units=m
New Line.LINE56_273 Bus1=56_267 Bus2=56_274 phases=3 Linecode=25_SAC_XC Length=0.10066 Units=m
New Line.LINE56_274 Bus1=56_268 Bus2=56_275 phases=3 Linecode=16_PSC Length=0.11404 Units=m
New Line.LINE56_275 Bus1=56_269 Bus2=56_276 phases=3 Linecode=16_PSC Length=0.073246 Units=m
New Line.LINE56_276 Bus1=56_270 Bus2=56_277 phases=3 Linecode=4_SAC_PC Length=0.045001 Units=m
New Line.LINE56_277 Bus1=56_271 Bus2=56_278 phases=3 Linecode=5c_.1 Length=0.7841 Units=m
New Line.LINE56_278 Bus1=56_271 Bus2=56_279 phases=3 Linecode=5c_.1 Length=3.9602 Units=m
New Line.LINE56_279 Bus1=56_272 Bus2=56_280 phases=3 Linecode=5c_.1 Length=0.35058 Units=m
New Line.LINE56_280 Bus1=56_273 Bus2=56_281 phases=3 Linecode=16_PSC Length=2.591 Units=m
New Line.LINE56_281 Bus1=56_274 Bus2=56_282 phases=3 Linecode=25_SAC_XC Length=0.10112 Units=m
New Line.LINE56_282 Bus1=56_275 Bus2=56_283 phases=3 Linecode=16_PSC Length=2.4158 Units=m
New Line.LINE56_283 Bus1=56_276 Bus2=56_284 phases=3 Linecode=16_PSC Length=0.38713 Units=m
New Line.LINE56_284 Bus1=56_277 Bus2=56_285 phases=3 Linecode=4_SAC_PC Length=0.043863 Units=m
New Line.LINE56_285 Bus1=56_278 Bus2=56_286 phases=3 Linecode=5c_.1 Length=0.372 Units=m
New Line.LINE56_286 Bus1=56_279 Bus2=56_287 phases=3 Linecode=5c_.1 Length=0.71154 Units=m
New Line.LINE56_287 Bus1=56_280 Bus2=56_288 phases=3 Linecode=5c_.1 Length=0.45516 Units=m
New Line.LINE56_288 Bus1=56_281 Bus2=56_289 phases=3 Linecode=16_PSC Length=1.0998 Units=m
New Line.LINE56_289 Bus1=56_282 Bus2=56_290 phases=3 Linecode=25_SAC_XC Length=0.10084 Units=m
New Line.LINE56_290 Bus1=56_283 Bus2=56_291 phases=3 Linecode=16_PSC Length=0.19689 Units=m
New Line.LINE56_291 Bus1=56_284 Bus2=56_292 phases=3 Linecode=16_PSC Length=5.5015 Units=m
New Line.LINE56_292 Bus1=56_285 Bus2=56_293 phases=3 Linecode=4_SAC_PC Length=0.36217 Units=m
New Line.LINE56_293 Bus1=56_286 Bus2=56_294 phases=3 Linecode=5c_.1 Length=0.11384 Units=m
New Line.LINE56_294 Bus1=56_287 Bus2=56_295 phases=3 Linecode=5c_.1 Length=5.7197 Units=m
New Line.LINE56_295 Bus1=56_287 Bus2=56_296 phases=3 Linecode=16_PSC Length=0.42941 Units=m
New Line.LINE56_296 Bus1=56_288 Bus2=56_297 phases=3 Linecode=5c_.1 Length=0.40001 Units=m
New Line.LINE56_297 Bus1=56_289 Bus2=56_298 phases=3 Linecode=16_PSC Length=0.51012 Units=m
New Line.LINE56_298 Bus1=56_290 Bus2=56_299 phases=3 Linecode=25_SAC_XC Length=0.10058 Units=m
New Line.LINE56_299 Bus1=56_291 Bus2=56_300 phases=3 Linecode=16_PSC Length=0.10858 Units=m
New Line.LINE56_300 Bus1=56_295 Bus2=56_301 phases=3 Linecode=5c_.1 Length=5.0149 Units=m
New Line.LINE56_301 Bus1=56_296 Bus2=56_302 phases=3 Linecode=16_PSC Length=0.20494 Units=m
New Line.LINE56_302 Bus1=56_297 Bus2=56_303 phases=3 Linecode=5c_.1 Length=0.33702 Units=m
New Line.LINE56_303 Bus1=56_298 Bus2=56_304 phases=3 Linecode=16_PSC Length=0.36005 Units=m
New Line.LINE56_304 Bus1=56_299 Bus2=56_305 phases=3 Linecode=25_SAC_XC Length=0.10107 Units=m
New Line.LINE56_305 Bus1=56_300 Bus2=56_306 phases=3 Linecode=16_PSC Length=0.085148 Units=m
New Line.LINE56_306 Bus1=56_301 Bus2=56_307 phases=3 Linecode=5c_.1 Length=3.3676 Units=m
New Line.LINE56_307 Bus1=56_302 Bus2=56_308 phases=3 Linecode=16_PSC Length=0.17466 Units=m
New Line.LINE56_308 Bus1=56_303 Bus2=56_309 phases=3 Linecode=5c_.1 Length=0.049397 Units=m
New Line.LINE56_309 Bus1=56_304 Bus2=56_310 phases=3 Linecode=16_PSC Length=0.16633 Units=m
New Line.LINE56_310 Bus1=56_305 Bus2=56_311 phases=3 Linecode=25_SAC_XC Length=0.24412 Units=m
New Line.LINE56_311 Bus1=56_306 Bus2=56_312 phases=3 Linecode=16_PSC Length=0.089 Units=m
New Line.LINE56_312 Bus1=56_307 Bus2=56_313 phases=3 Linecode=.3 Length=1.2686 Units=m
New Line.LINE56_313 Bus1=56_308 Bus2=56_314 phases=3 Linecode=16_PSC Length=0.19385 Units=m
New Line.LINE56_314 Bus1=56_309 Bus2=56_315 phases=3 Linecode=5c_.1 Length=0.48051 Units=m
New Line.LINE56_315 Bus1=56_310 Bus2=56_316 phases=3 Linecode=16_PSC Length=0.186 Units=m
New Line.LINE56_316 Bus1=56_312 Bus2=56_317 phases=3 Linecode=16_PSC Length=0.39635 Units=m
New Line.LINE56_317 Bus1=56_313 Bus2=56_318 phases=3 Linecode=.3 Length=1.9041 Units=m
New Line.LINE56_318 Bus1=56_314 Bus2=56_319 phases=3 Linecode=16_PSC Length=1.7527 Units=m
New Line.LINE56_319 Bus1=56_316 Bus2=56_320 phases=3 Linecode=16_PSC Length=0.17466 Units=m
New Line.LINE56_320 Bus1=56_317 Bus2=56_321 phases=3 Linecode=16_PSC Length=5.6659 Units=m
New Line.LINE56_321 Bus1=56_318 Bus2=56_322 phases=3 Linecode=25_SAC_XC Length=9.0492 Units=m
New Line.LINE56_322 Bus1=56_318 Bus2=56_323 phases=3 Linecode=.3 Length=0.85491 Units=m
New Line.LINE56_323 Bus1=56_319 Bus2=56_324 phases=3 Linecode=16_PSC Length=3.4487 Units=m
New Line.LINE56_324 Bus1=56_320 Bus2=56_325 phases=3 Linecode=16_PSC Length=1.8461 Units=m
New Line.LINE56_325 Bus1=56_322 Bus2=56_326 phases=3 Linecode=25_SAC_XC Length=0.4658 Units=m
New Line.LINE56_326 Bus1=56_323 Bus2=56_327 phases=3 Linecode=3c_185_SAC_XC Length=4.4926 Units=m