New Line.LINE102_2 Bus1=102_1 Bus2=102_3 phases=3 Linecode=25_SAC_XC Length=14.093 Units=m
New Line.LINE102_24 Bus1=102_24 Bus2=102_25 phases=3 Linecode=3c_300_SAC_XC Length=0.24921 Units=m
New Line.LINE102_26 Bus1=102_24 Bus2=102_27 phases=3 Linecode=4c_.5_SAC Length=0.14529 Units=m
New Line.LINE102_27 Bus1=102_25 Bus2=102_28 phases=3 Linecode=3c_300_SAC_XC Length=2.0366 Units=m
New Line.LINE102_29 Bus1=102_27 Bus2=102_30 phases=3 Linecode=4c_.5_SAC Length=0.12938 Units=m
New Line.LINE102_30 Bus1=102_28 Bus2=102_31 phases=3 Linecode=3c_300_SAC_XC Length=1.7141 Units=m
New Line.LINE102_32 Bus1=102_30 Bus2=102_33 phases=3 Linecode=4c_.5_SAC Length=0.098681 Units=m
New Line.LINE102_33 Bus1=102_31 Bus2=102_34 phases=3 Linecode=4c_300_SAC Length=1.4061 Units=m
New Line.LINE102_35 Bus1=102_33 Bus2=102_36 phases=3 Linecode=4c_.5_SAC Length=0.13283 Units=m
New Line.LINE102_36 Bus1=102_34 Bus2=102_37 phases=3 Linecode=4c_300_SAC Length=2.5245 Units=m
New Line.LINE102_38 Bus1=102_36 Bus2=102_39 phases=3 Linecode=4c_.5_SAC Length=0.109 Units=m
New Line.LINE102_39 Bus1=102_37 Bus2=102_40 phases=3 Linecode=4c_300_SAC Length=0.43503 Units=m
New Line.LINE102_41 Bus1=102_39 Bus2=102_42 phases=3 Linecode=4c_.5_SAC Length=0.14828 Units=m
New Line.LINE102_42 Bus1=102_40 Bus2=102_43 phases=3 Linecode=4c_300_SAC Length=0.586 Units=m
New Line.LINE102_44 Bus1=102_42 Bus2=102_45 phases=3 Linecode=4c_.5_SAC Length=0.26848 Units=m
New Line.LINE102_45 Bus1=102_43 Bus2=102_46 phases=3 Linecode=4c_300_SAC Length=0.67548 Units=m
New Line.LINE102_47 Bus1=102_45 Bus2=102_48 phases=3 Linecode=4c_.5_SAC Length=1.6219 Units=m
New Line.LINE102_48 Bus1=102_46 Bus2=102_49 phases=3 Linecode=4c_.5 Length=0.34383 Units=m
New Line.LINE102_50 Bus1=102_48 Bus2=102_51 phases=3 Linecode=4c_300_SAC Length=3.3886 Units=m
New Line.LINE102_51 Bus1=102_49 Bus2=102_52 phases=3 Linecode=4c_.5 Length=0.29854 Units=m
New Line.LINE102_53 Bus1=102_51 Bus2=102_54 phases=3 Linecode=4c_300_SAC Length=2.2898 Units=m
New Line.LINE102_54 Bus1=102_52 Bus2=102_55 phases=3 Linecode=4c_.5 Length=0.26964 Units=m
New Line.LINE102_56 Bus1=102_54 Bus2=102_57 phases=3 Linecode=4c_300_SAC Length=0.48484 Units=m
New Line.LINE102_57 Bus1=102_55 Bus2=102_58 phases=3 Linecode=4c_.5 Length=0.63295 Units=m
New Line.LINE102_59 Bus1=102_57 Bus2=102_60 phases=3 Linecode=4c_300_SAC Length=0.16574 Units=m
New Line.LINE102_60 Bus1=102_58 Bus2=102_61 phases=3 Linecode=4c_.5 Length=1.288 Units=m
New Line.LINE102_61 Bus1=102_60 Bus2=102_62 phases=3 Linecode=4c_300_SAC Length=0.14916 Units=m
New Line.LINE102_62 Bus1=102_61 Bus2=102_63 phases=3 Linecode=4c_.5 Length=4.6078 Units=m
New Line.LINE102_63 Bus1=102_62 Bus2=102_64 phases=3 Linecode=4c_300_SAC Length=0.15852 Units=m
New Line.LINE102_64 Bus1=102_63 Bus2=102_65 phases=3 Linecode=4c_.5 Length=0.045188 Units=m
New Line.LINE102_65 Bus1=102_64 Bus2=102_66 phases=3 Linecode=4c_300_SAC Length=0.22304 Units=m
New Line.LINE102_66 Bus1=102_65 Bus2=102_67 phases=3 Linecode=4c_.5 Length=0.040226 Units=m
New Line.LINE102_67 Bus1=102_66 Bus2=102_68 phases=3 Linecode=4c_300_SAC Length=0.32319 Units=m
New Line.LINE102_68 Bus1=102_67 Bus2=102_69 phases=3 Linecode=4c_.5 Length=0.066029 Units=m
New Line.LINE102_69 Bus1=102_68 Bus2=102_70 phases=3 Linecode=4c_.5 Length=0.16638 Units=m
New Line.LINE102_70 Bus1=102_69 Bus2=102_71 phases=3 Linecode=4c_.5 Length=0.047297 Units=m
New Line.LINE102_71 Bus1=102_70 Bus2=102_72 phases=3 Linecode=4c_.5 Length=5.0738 Units=m
New Line.LINE102_72 Bus1=102_71 Bus2=102_73 phases=3 Linecode=4c_.5 Length=0.035128 Units=m
New Line.LINE102_73 Bus1=102_72 Bus2=102_74 phases=3 Linecode=4c_.5 Length=0.1784 Units=m
New Line.LINE102_74 Bus1=102_73 Bus2=102_75 phases=3 Linecode=4c_.5 Length=0.050695 Units=m
New Line.LINE102_75 Bus1=102_74 Bus2=102_76 phases=3 Linecode=4c_.5 Length=0.16105 Units=m
New Line.LINE102_76 Bus1=102_75 Bus2=102_77 phases=3 Linecode=4c_.5 Length=4.4979 Units=m
New Line.LINE102_77 Bus1=102_76 Bus2=102_78 phases=3 Linecode=4c_.5 Length=0.207 Units=m
New Line.LINE102_78 Bus1=102_77 Bus2=102_79 phases=3 Linecode=4c_.5 Length=11.1133 Units=m
New Line.LINE102_79 Bus1=102_78 Bus2=102_80 phases=3 Linecode=4c_.5 Length=0.17899 Units=m
New Line.LINE102_81 Bus1=102_79 Bus2=102_82 phases=3 Linecode=4c_.5 Length=0.13507 Units=m
New Line.LINE102_82 Bus1=102_80 Bus2=102_83 phases=3 Linecode=4c_.5 Length=7.0307 Units=m
New Line.LINE102_84 Bus1=102_82 Bus2=102_85 phases=3 Linecode=4c_.5 Length=22.7208 Units=m
New Line.LINE102_85 Bus1=102_83 Bus2=102_86 phases=3 Linecode=4c_.5 Length=6.6708 Units=m
New Line.LINE102_87 Bus1=102_85 Bus2=102_88 phases=3 Linecode=4c_.5 Length=6.4315 Units=m
New Line.LINE102_88 Bus1=102_86 Bus2=102_89 phases=3 Linecode=3c_.5 Length=3.1691 Units=m
New Line.LINE102_91 Bus1=102_88 Bus2=102_92 phases=3 Linecode=4c_.5 Length=0.91798 Units=m
New Line.LINE102_92 Bus1=102_89 Bus2=102_93 phases=3 Linecode=3c_.5 Length=8.6618 Units=m
New Line.LINE102_95 Bus1=102_92 Bus2=102_96 phases=3 Linecode=4c_.5 Length=0.097497 Units=m
New Line.LINE102_96 Bus1=102_93 Bus2=102_97 phases=3 Linecode=3c_.5 Length=2.6706 Units=m
New Line.LINE102_99 Bus1=102_96 Bus2=102_100 phases=3 Linecode=4c_.5 Length=0.067684 Units=m
New Line.LINE102_100 Bus1=102_97 Bus2=102_101 phases=3 Linecode=3c_.5 Length=12.4518 Units=m
New Line.LINE102_103 Bus1=102_100 Bus2=102_104 phases=3 Linecode=4c_.5 Length=0.061008 Units=m
New Line.LINE102_104 Bus1=102_101 Bus2=102_105 phases=3 Linecode=3c_.5 Length=0.23314 Units=m
New Line.LINE102_107 Bus1=102_104 Bus2=102_108 phases=3 Linecode=4c_.5 Length=0.055785 Units=m
New Line.LINE102_108 Bus1=102_105 Bus2=102_109 phases=3 Linecode=3c_.5 Length=0.15571 Units=m
New Line.LINE102_111 Bus1=102_108 Bus2=102_112 phases=3 Linecode=4c_.5 Length=0.067601 Units=m
New Line.LINE102_112 Bus1=102_109 Bus2=102_113 phases=3 Linecode=3c_.5 Length=0.15405 Units=m
New Line.LINE102_115 Bus1=102_112 Bus2=102_116 phases=3 Linecode=4c_.5 Length=0.053077 Units=m
New Line.LINE102_116 Bus1=102_113 Bus2=102_117 phases=3 Linecode=3c_.5 Length=0.114 Units=m
New Line.LINE102_120 Bus1=102_116 Bus2=102_121 phases=3 Linecode=4c_.5 Length=0.18921 Units=m
New Line.LINE102_121 Bus1=102_117 Bus2=102_122 phases=3 Linecode=3c_.5 Length=0.142 Units=m
New Line.LINE102_125 Bus1=102_121 Bus2=102_126 phases=3 Linecode=4c_.5 Length=0.24909 Units=m
New Line.LINE102_126 Bus1=102_122 Bus2=102_127 phases=3 Linecode=3c_.5 Length=0.16103 Units=m
New Line.LINE102_129 Bus1=102_126 Bus2=102_130 phases=3 Linecode=4c_.5 Length=0.52192 Units=m
New Line.LINE102_131 Bus1=102_127 Bus2=102_132 phases=3 Linecode=3c_.5 Length=0.34126 Units=m
New Line.LINE102_134 Bus1=102_130 Bus2=102_135 phases=3 Linecode=4c_.5 Length=0.69759 Units=m
New Line.LINE102_136 Bus1=102_132 Bus2=102_137 phases=3 Linecode=3c_.5 Length=1.8436 Units=m
New Line.LINE102_139 Bus1=102_135 Bus2=102_140 phases=3 Linecode=4c_.5 Length=0.50032 Units=m
New Line.LINE102_142 Bus1=102_137 Bus2=102_143 phases=3 Linecode=3c_.5 Length=14.2403 Units=m
New Line.LINE102_146 Bus1=102_140 Bus2=102_147 phases=3 Linecode=4c_.5 Length=0.50759 Units=m
New Line.LINE102_152 Bus1=102_147 Bus2=102_153 phases=3 Linecode=4c_.5 Length=15.2027 Units=m
New Line.LINE102_158 Bus1=102_153 Bus2=102_159 phases=3 Linecode=4c_.5 Length=6.8211 Units=m
New Line.LINE102_164 Bus1=102_159 Bus2=102_165 phases=3 Linecode=4c_.5 Length=0.18436 Units=m
New Line.LINE102_170 Bus1=102_165 Bus2=102_171 phases=3 Linecode=4c_.5 Length=0.23386 Units=m
New Line.LINE102_176 Bus1=102_171 Bus2=102_177 phases=3 Linecode=4c_.5 Length=0.8062 Units=m
New Line.LINE102_183 Bus1=102_177 Bus2=102_184 phases=3 Linecode=4c_.5 Length=1.2795 Units=m
New Line.LINE102_191 Bus1=102_184 Bus2=102_192 phases=3 Linecode=4c_.5 Length=1.5598 Units=m
New Line.LINE102_199 Bus1=102_192 Bus2=102_200 phases=3 Linecode=3c_300_SAC_XC Length=0.47128 Units=m
New Line.LINE102_208 Bus1=102_200 Bus2=102_209 phases=3 Linecode=3c_300_SAC_XC Length=0.19161 Units=m
New Line.LINE102_218 Bus1=102_209 Bus2=102_219 phases=3 Linecode=3c_300_SAC_XC Length=0.25613 Units=m
New Line.LINE102_227 Bus1=102_219 Bus2=102_228 phases=3 Linecode=3c_300_SAC_XC Length=0.327 Units=m
New Line.LINE102_236 Bus1=102_228 Bus2=102_237 phases=3 Linecode=3c_300_SAC_XC Length=0.27906 Units=m
New Line.LINE102_245 Bus1=102_237 Bus2=102_246 phases=3 Linecode=3c_300_SAC_XC Length=0.31691 Units=m
New Line.LINE102_255 Bus1=102_246 Bus2=102_256 phases=3 Linecode=3c_300_SAC_XC Length=0.23201 Units=m
New Line.LINE102_263 Bus1=102_256 Bus2=102_264 phases=3 Linecode=3c_300_SAC_XC Length=1.0982 Units=m
New Line.LINE102_272 Bus1=102_264 Bus2=102_273 phases=3 Linecode=3c_300_SAC_XC Length=0.47161 Units=m
New Line.LINE102_281 Bus1=102_273 Bus2=102_282 phases=3 Linecode=3c_300_SAC_XC Length=0.50545 Units=m
New Line.LINE102_288 Bus1=102_282 Bus2=102_289 phases=3 Linecode=3c_300_SAC_XC Length=0.5864 Units=m
New Line.LINE102_294 Bus1=102_289 Bus2=102_295 phases=3 Linecode=3c_300_SAC_XC Length=0.3281 Units=m
New Line.LINE102_300 Bus1=102_295 Bus2=102_301 phases=3 Linecode=3c_300_SAC_XC Length=0.23255 Units=m
New Line.LINE102_305 Bus1=102_301 Bus2=102_306 phases=3 Linecode=3c_300_SAC_XC Length=7.6585 Units=m
New Line.LINE102_309 Bus1=102_306 Bus2=102_310 phases=3 Linecode=3c_300_SAC_XC Length=0.15305 Units=m
New Line.LINE102_313 Bus1=102_310 Bus2=102_314 phases=3 Linecode=3c_300_SAC_XC Length=0.27093 Units=m
New Line.LINE102_318 Bus1=102_314 Bus2=102_319 phases=3 Linecode=3c_300_SAC_XC Length=0.19646 Units=m
New Line.LINE102_323 Bus1=102_319 Bus2=102_324 phases=3 Linecode=3c_300_SAC_XC Length=0.19513 Units=m
New Line.LINE102_328 Bus1=102_324 Bus2=102_329 phases=3 Linecode=3c_300_SAC_XC Length=0.19526 Units=m
New Line.LINE102_333 Bus1=102_329 Bus2=102_334 phases=3 Linecode=3c_300_SAC_XC Length=0.19647 Units=m
New Line.LINE102_338 Bus1=102_334 Bus2=102_339 phases=3 Linecode=3c_300_SAC_XC Length=0.19506 Units=m
New Line.LINE102_342 Bus1=102_339 Bus2=102_343 phases=3 Linecode=3c_300_SAC_XC Length=0.19524 Units=m
New Line.LINE102_346 Bus1=102_343 Bus2=102_347 phases=3 Linecode=3c_300_SAC_XC Length=0.19589 Units=m
New Line.LINE102_351 Bus1=102_347 Bus2=102_352 phases=3 Linecode=3c_300_SAC_XC Length=0.19536 Units=m
New Line.LINE102_356 Bus1=102_352 Bus2=102_357 phases=3 Linecode=3c_300_SAC_XC Length=0.1958 Units=m
New Line.LINE102_361 Bus1=102_357 Bus2=102_362 phases=3 Linecode=3c_300_SAC_XC Length=0.19504 Units=m
New Line.LINE102_366 Bus1=102_362 Bus2=102_367 phases=3 Linecode=3c_300_SAC_XC Length=0.19556 Units=m
New Line.LINE102_370 Bus1=102_367 Bus2=102_371 phases=3 Linecode=3c_300_SAC_XC Length=3.5596 Units=m
New Line.LINE102_375 Bus1=102_371 Bus2=102_376 phases=3 Linecode=3c_300_SAC_XC Length=0.91971 Units=m
New Line.LINE102_380 Bus1=102_376 Bus2=102_381 phases=3 Linecode=3c_300_SAC_XC Length=0.27818 Units=m
New Line.LINE102_385 Bus1=102_381 Bus2=102_386 phases=3 Linecode=25_SAC_XC Length=0.47293 Units=m
New Line.LINE102_389 Bus1=102_386 Bus2=102_390 phases=3 Linecode=25_SAC_XC Length=0.76494 Units=m
New Line.LINE102_393 Bus1=102_390 Bus2=102_394 phases=3 Linecode=25_SAC_XC Length=0.7653 Units=m
New Line.LINE102_397 Bus1=102_394 Bus2=102_398 phases=3 Linecode=25_SAC_XC Length=0.76525 Units=m
New Line.LINE102_400 Bus1=102_398 Bus2=102_401 phases=3 Linecode=25_SAC_XC Length=0.76522 Units=m
New Line.LINE102_403 Bus1=102_401 Bus2=102_404 phases=3 Linecode=25_SAC_XC Length=0.76463 Units=m
New Line.LINE102_406 Bus1=102_404 Bus2=102_407 phases=3 Linecode=25_SAC_XC Length=0.76542 Units=m
New Line.LINE102_409 Bus1=102_407 Bus2=102_410 phases=3 Linecode=25_SAC_XC Length=0.765 Units=m
New Line.LINE102_412 Bus1=102_410 Bus2=102_413 phases=3 Linecode=25_SAC_XC Length=6.3877 Units=m
New Line.LINE102_415 Bus1=102_413 Bus2=102_416 phases=3 Linecode=25_SAC_XC Length=19 Units=m
New Line.LINE102_418 Bus1=102_416 Bus2=102_419 phases=3 Linecode=25_SAC_XC Length=10.6834 Units=m
New Line.LINE102_421 Bus1=102_419 Bus2=102_422 phases=3 Linecode=4c_95_SAC_XC Length=8.8617 Units=m
New Line.LINE102_423 Bus1=102_422 Bus2=102_424 phases=3 Linecode=4c_95_SAC_XC Length=0.25959 Units=m
New Line.LINE102_425 Bus1=102_424 Bus2=102_426 phases=3 Linecode=4c_95_SAC_XC Length=0.46348 Units=m
New Line.LINE102_427 Bus1=102_426 Bus2=102_428 phases=3 Linecode=4c_95_SAC_XC Length=0.89337 Units=m
New Line.LINE102_430 Bus1=102_428 Bus2=102_431 phases=3 Linecode=4c_95_SAC_XC Length=0.46137 Units=m
New Line.LINE102_433 Bus1=102_431 Bus2=102_434 phases=3 Linecode=4c_95_SAC_XC Length=0.16808 Units=m
New Line.LINE102_435 Bus1=102_434 Bus2=102_436 phases=3 Linecode=4c_95_SAC_XC Length=0.37044 Units=m
New Line.LINE102_437 Bus1=102_436 Bus2=102_438 phases=3 Linecode=4c_95_SAC_XC Length=0.26499 Units=m
New Line.LINE102_439 Bus1=102_438 Bus2=102_440 phases=3 Linecode=4c_95_SAC_XC Length=0.30997 Units=m
New Line.LINE102_441 Bus1=102_440 Bus2=102_442 phases=3 Linecode=4c_95_SAC_XC Length=8.8451 Units=m
New Line.LINE102_443 Bus1=102_442 Bus2=102_444 phases=3 Linecode=25_SAC_XC Length=10.2776 Units=m
New Line.LINE102_Cmpd_0 Bus1=102_1 Bus2=102_24 phases=3 Linecode=3c_300_SAC_XC Length=27.10283 Units=m
