New Line.LINE2 Bus1=1 Bus2=3 phases=3 Linecode=25_SAC_XC Length=14.093 Units=m
New Line.LINE418 Bus1=416 Bus2=419 phases=3 Linecode=25_SAC_XC Length=10.6834 Units=m
New Line.LINE443 Bus1=442 Bus2=444 phases=3 Linecode=25_SAC_XC Length=10.2776 Units=m
New Line.LINECmpd_0 Bus1=24 Bus2=31 phases=3 Linecode=3c_300_SAC_XC Length=3.99991 Units=m
New Line.LINECmpd_1 Bus1=192 Bus2=381 phases=3 Linecode=3c_300_SAC_XC Length=20.28755 Units=m
New Line.LINECmpd_2 Bus1=46 Bus2=192 phases=3 Linecode=4c_.5 Length=82.697765 Units=m
New Line.LINECmpd_3 Bus1=1 Bus2=24 phases=3 Linecode=3c_300_SAC_XC Length=27.10283 Units=m
New Line.LINECmpd_4 Bus1=86 Bus2=143 phases=3 Linecode=3c_.5 Length=44.33839 Units=m
New Line.LINECmpd_5 Bus1=48 Bus2=68 phases=3 Linecode=4c_300_SAC Length=7.18289 Units=m
New Line.LINECmpd_6 Bus1=419 Bus2=442 phases=3 Linecode=4c_95_SAC_XC Length=20.89809 Units=m
New Line.LINECmpd_7 Bus1=381 Bus2=416 phases=3 Linecode=25_SAC_XC Length=31.21639 Units=m
New Line.LINECmpd_8 Bus1=24 Bus2=48 phases=3 Linecode=4c_.5_SAC Length=2.653841 Units=m
New Line.LINECmpd_9 Bus1=68 Bus2=86 phases=3 Linecode=4c_.5 Length=19.66712 Units=m
New Line.LINECmpd_10 Bus1=31 Bus2=46 phases=3 Linecode=4c_300_SAC Length=5.62711 Units=m
