New Line.LINE186_1 Bus1=186_1 Bus2=186_2 phases=3 Linecode=4c_.2 Length=0.54078 Units=m
New Line.LINE186_2 Bus1=186_2 Bus2=186_3 phases=3 Linecode=4c_.2 Length=0.054231 Units=m
New Line.LINE186_3 Bus1=186_3 Bus2=186_4 phases=3 Linecode=4c_.2 Length=0.051196 Units=m
New Line.LINE186_4 Bus1=186_4 Bus2=186_5 phases=3 Linecode=4c_.2 Length=0.052037 Units=m
New Line.LINE186_5 Bus1=186_5 Bus2=186_6 phases=3 Linecode=4c_.2 Length=0.064631 Units=m
New Line.LINE186_6 Bus1=186_6 Bus2=186_7 phases=3 Linecode=4c_.2 Length=0.065552 Units=m
New Line.LINE186_7 Bus1=186_7 Bus2=186_8 phases=3 Linecode=4c_.2 Length=0.059363 Units=m
New Line.LINE186_8 Bus1=186_8 Bus2=186_9 phases=3 Linecode=4c_.2 Length=0.066467 Units=m
New Line.LINE186_9 Bus1=186_9 Bus2=186_10 phases=3 Linecode=4c_.2 Length=0.057141 Units=m
New Line.LINE186_10 Bus1=186_10 Bus2=186_11 phases=3 Linecode=4c_.2 Length=0.29859 Units=m
New Line.LINE186_11 Bus1=186_11 Bus2=186_12 phases=3 Linecode=4c_.2 Length=1.097 Units=m
New Line.LINE186_12 Bus1=186_12 Bus2=186_13 phases=3 Linecode=4c_.2 Length=0.068942 Units=m
New Line.LINE186_13 Bus1=186_13 Bus2=186_14 phases=3 Linecode=4c_.2 Length=0.074726 Units=m
New Line.LINE186_14 Bus1=186_14 Bus2=186_15 phases=3 Linecode=4c_.2 Length=0.054589 Units=m
New Line.LINE186_15 Bus1=186_15 Bus2=186_16 phases=3 Linecode=4c_.2 Length=0.077104 Units=m
New Line.LINE186_16 Bus1=186_16 Bus2=186_17 phases=3 Linecode=4c_.2 Length=0.075953 Units=m
New Line.LINE186_17 Bus1=186_17 Bus2=186_18 phases=3 Linecode=4c_.2 Length=0.097863 Units=m
New Line.LINE186_18 Bus1=186_18 Bus2=186_19 phases=3 Linecode=4c_.2 Length=0.11569 Units=m
New Line.LINE186_19 Bus1=186_19 Bus2=186_20 phases=3 Linecode=4c_.2 Length=0.10891 Units=m
New Line.LINE186_20 Bus1=186_20 Bus2=186_21 phases=3 Linecode=4c_.2 Length=0.10808 Units=m
New Line.LINE186_21 Bus1=186_21 Bus2=186_22 phases=3 Linecode=4c_.2 Length=2.0245 Units=m
New Line.LINE186_22 Bus1=186_22 Bus2=186_23 phases=3 Linecode=4c_.2 Length=2.1578 Units=m
New Line.LINE186_23 Bus1=186_23 Bus2=186_24 phases=3 Linecode=4c_.2 Length=0.13543 Units=m
New Line.LINE186_24 Bus1=186_24 Bus2=186_25 phases=3 Linecode=4c_.2 Length=0.16098 Units=m
New Line.LINE186_25 Bus1=186_25 Bus2=186_26 phases=3 Linecode=4c_.2 Length=0.24732 Units=m
New Line.LINE186_26 Bus1=186_26 Bus2=186_27 phases=3 Linecode=4c_.2 Length=3.0324 Units=m
New Line.LINE186_27 Bus1=186_27 Bus2=186_28 phases=3 Linecode=4c_.2 Length=0.28359 Units=m
New Line.LINE186_28 Bus1=186_28 Bus2=186_29 phases=3 Linecode=4c_.2 Length=0.20796 Units=m
New Line.LINE186_29 Bus1=186_29 Bus2=186_30 phases=3 Linecode=4c_.2 Length=0.83492 Units=m
New Line.LINE186_30 Bus1=186_30 Bus2=186_31 phases=3 Linecode=4c_.2 Length=0.92623 Units=m
New Line.LINE186_31 Bus1=186_31 Bus2=186_32 phases=3 Linecode=4c_.2 Length=0.31036 Units=m
New Line.LINE186_32 Bus1=186_32 Bus2=186_33 phases=3 Linecode=4c_.2 Length=0.20635 Units=m
New Line.LINE186_33 Bus1=186_33 Bus2=186_34 phases=3 Linecode=4c_.2 Length=0.27772 Units=m
New Line.LINE186_34 Bus1=186_34 Bus2=186_35 phases=3 Linecode=4c_.2 Length=9.3383 Units=m
New Line.LINE186_35 Bus1=186_35 Bus2=186_36 phases=3 Linecode=4_PC Length=0.80801 Units=m
New Line.LINE186_36 Bus1=186_35 Bus2=186_37 phases=3 Linecode=4c_.2 Length=5.7819 Units=m
New Line.LINE186_37 Bus1=186_36 Bus2=186_38 phases=3 Linecode=4_PC Length=0.40929 Units=m
New Line.LINE186_38 Bus1=186_37 Bus2=186_39 phases=3 Linecode=4c_.2 Length=0.77193 Units=m
New Line.LINE186_39 Bus1=186_38 Bus2=186_40 phases=3 Linecode=4_PC Length=0.19383 Units=m
New Line.LINE186_40 Bus1=186_39 Bus2=186_41 phases=3 Linecode=4c_.2 Length=0.85708 Units=m
New Line.LINE186_41 Bus1=186_40 Bus2=186_42 phases=3 Linecode=4_PC Length=0.28745 Units=m
New Line.LINE186_42 Bus1=186_41 Bus2=186_43 phases=3 Linecode=4c_.2 Length=0.75732 Units=m
New Line.LINE186_43 Bus1=186_43 Bus2=186_44 phases=3 Linecode=4c_.2 Length=3.0863 Units=m
New Line.LINE186_44 Bus1=186_44 Bus2=186_45 phases=3 Linecode=4c_.2 Length=0.32259 Units=m
New Line.LINE186_45 Bus1=186_45 Bus2=186_46 phases=3 Linecode=4c_.2 Length=0.91858 Units=m
New Line.LINE186_46 Bus1=186_46 Bus2=186_47 phases=3 Linecode=4c_.2 Length=0.73483 Units=m
New Line.LINE186_47 Bus1=186_47 Bus2=186_48 phases=3 Linecode=4c_.2 Length=1.4293 Units=m
New Line.LINE186_48 Bus1=186_48 Bus2=186_49 phases=3 Linecode=4c_.2 Length=2.1503 Units=m
New Line.LINE186_49 Bus1=186_49 Bus2=186_50 phases=3 Linecode=4c_.2 Length=0.63132 Units=m
New Line.LINE186_50 Bus1=186_50 Bus2=186_51 phases=3 Linecode=4c_.2 Length=0.52704 Units=m
New Line.LINE186_51 Bus1=186_51 Bus2=186_52 phases=3 Linecode=4c_.2 Length=0.56029 Units=m
New Line.LINE186_52 Bus1=186_52 Bus2=186_53 phases=3 Linecode=4c_.2 Length=0.62346 Units=m
New Line.LINE186_53 Bus1=186_53 Bus2=186_54 phases=3 Linecode=4c_.2 Length=0.55372 Units=m
New Line.LINE186_54 Bus1=186_54 Bus2=186_55 phases=3 Linecode=4c_.2 Length=0.36284 Units=m
New Line.LINE186_55 Bus1=186_55 Bus2=186_56 phases=3 Linecode=4c_.2 Length=1.4529 Units=m
New Line.LINE186_56 Bus1=186_56 Bus2=186_57 phases=3 Linecode=4c_.2 Length=2.5572 Units=m
New Line.LINE186_57 Bus1=186_57 Bus2=186_58 phases=3 Linecode=4c_.2 Length=0.28925 Units=m
New Line.LINE186_58 Bus1=186_58 Bus2=186_59 phases=3 Linecode=4c_.2 Length=0.2033 Units=m
New Line.LINE186_59 Bus1=186_59 Bus2=186_60 phases=3 Linecode=4c_.2 Length=0.18572 Units=m
New Line.LINE186_60 Bus1=186_60 Bus2=186_61 phases=3 Linecode=4c_.2 Length=0.24302 Units=m
New Line.LINE186_61 Bus1=186_61 Bus2=186_62 phases=3 Linecode=4c_.2 Length=0.32704 Units=m
New Line.LINE186_62 Bus1=186_62 Bus2=186_63 phases=3 Linecode=4c_.2 Length=0.58812 Units=m
New Line.LINE186_63 Bus1=186_63 Bus2=186_64 phases=3 Linecode=4_PC Length=0.22162 Units=m
New Line.LINE186_64 Bus1=186_63 Bus2=186_65 phases=3 Linecode=4c_.2 Length=1.2264 Units=m
New Line.LINE186_65 Bus1=186_64 Bus2=186_66 phases=3 Linecode=4_PC Length=0.14357 Units=m
New Line.LINE186_66 Bus1=186_65 Bus2=186_67 phases=3 Linecode=4c_.2 Length=5.9912 Units=m
New Line.LINE186_67 Bus1=186_66 Bus2=186_68 phases=3 Linecode=4_PC Length=0.35902 Units=m
New Line.LINE186_68 Bus1=186_67 Bus2=186_69 phases=3 Linecode=4c_.2 Length=1.9897 Units=m
New Line.LINE186_69 Bus1=186_68 Bus2=186_70 phases=3 Linecode=4_PC Length=0.29684 Units=m
New Line.LINE186_70 Bus1=186_69 Bus2=186_71 phases=3 Linecode=4c_.2 Length=0.25516 Units=m
New Line.LINE186_71 Bus1=186_70 Bus2=186_72 phases=3 Linecode=4_PC Length=0.26082 Units=m
New Line.LINE186_72 Bus1=186_71 Bus2=186_73 phases=3 Linecode=4c_.2 Length=0.24142 Units=m
New Line.LINE186_73 Bus1=186_73 Bus2=186_74 phases=3 Linecode=4c_.2 Length=0.19882 Units=m
New Line.LINE186_74 Bus1=186_74 Bus2=186_75 phases=3 Linecode=4c_.2 Length=0.26461 Units=m
New Line.LINE186_75 Bus1=186_75 Bus2=186_76 phases=3 Linecode=4c_.2 Length=0.22797 Units=m
New Line.LINE186_76 Bus1=186_76 Bus2=186_77 phases=3 Linecode=4c_.2 Length=2.2427 Units=m
New Line.LINE186_77 Bus1=186_77 Bus2=186_78 phases=3 Linecode=4c_.2 Length=3.08 Units=m
New Line.LINE186_78 Bus1=186_78 Bus2=186_79 phases=3 Linecode=4c_.2 Length=0.69959 Units=m
New Line.LINE186_79 Bus1=186_79 Bus2=186_80 phases=3 Linecode=4c_.2 Length=0.10763 Units=m
New Line.LINE186_80 Bus1=186_80 Bus2=186_81 phases=3 Linecode=4c_.2 Length=0.35717 Units=m
New Line.LINE186_81 Bus1=186_81 Bus2=186_82 phases=3 Linecode=2c_.0225 Length=0.18533 Units=m
New Line.LINE186_82 Bus1=186_81 Bus2=186_83 phases=3 Linecode=4c_.2 Length=1.1465 Units=m
New Line.LINE186_83 Bus1=186_82 Bus2=186_84 phases=3 Linecode=2c_.0225 Length=0.17438 Units=m
New Line.LINE186_84 Bus1=186_83 Bus2=186_85 phases=3 Linecode=4c_.2 Length=2.0097 Units=m
New Line.LINE186_85 Bus1=186_84 Bus2=186_86 phases=3 Linecode=2c_.0225 Length=0.16566 Units=m
New Line.LINE186_86 Bus1=186_85 Bus2=186_87 phases=3 Linecode=2c_.007_VIR Length=0.61884 Units=m
New Line.LINE186_87 Bus1=186_85 Bus2=186_88 phases=3 Linecode=4c_.2 Length=0.78476 Units=m
New Line.LINE186_88 Bus1=186_86 Bus2=186_89 phases=3 Linecode=2c_.0225 Length=0.098061 Units=m
New Line.LINE186_89 Bus1=186_88 Bus2=186_90 phases=3 Linecode=4c_.2 Length=0.80988 Units=m
New Line.LINE186_90 Bus1=186_89 Bus2=186_91 phases=3 Linecode=2c_.0225 Length=0.13354 Units=m
New Line.LINE186_91 Bus1=186_90 Bus2=186_92 phases=3 Linecode=4c_.2 Length=0.66206 Units=m
New Line.LINE186_92 Bus1=186_91 Bus2=186_93 phases=3 Linecode=2c_.0225 Length=0.1252 Units=m
New Line.LINE186_93 Bus1=186_92 Bus2=186_94 phases=3 Linecode=4c_.2 Length=0.79116 Units=m
New Line.LINE186_94 Bus1=186_93 Bus2=186_95 phases=3 Linecode=2c_.0225 Length=0.115 Units=m
New Line.LINE186_95 Bus1=186_94 Bus2=186_96 phases=3 Linecode=4c_.2 Length=0.84807 Units=m
New Line.LINE186_96 Bus1=186_95 Bus2=186_97 phases=3 Linecode=2c_.0225 Length=0.12615 Units=m
New Line.LINE186_97 Bus1=186_96 Bus2=186_98 phases=3 Linecode=4c_.2 Length=0.94359 Units=m
New Line.LINE186_98 Bus1=186_97 Bus2=186_99 phases=3 Linecode=2c_.0225 Length=0.10823 Units=m
New Line.LINE186_99 Bus1=186_98 Bus2=186_100 phases=3 Linecode=4c_.2 Length=0.95688 Units=m
New Line.LINE186_100 Bus1=186_99 Bus2=186_101 phases=3 Linecode=2c_.0225 Length=0.18147 Units=m
New Line.LINE186_101 Bus1=186_100 Bus2=186_102 phases=3 Linecode=4c_.2 Length=1.0709 Units=m
New Line.LINE186_102 Bus1=186_101 Bus2=186_103 phases=3 Linecode=2c_.0225 Length=1.4139 Units=m
New Line.LINE186_103 Bus1=186_102 Bus2=186_104 phases=3 Linecode=4c_.2 Length=1.0103 Units=m
New Line.LINE186_104 Bus1=186_103 Bus2=186_105 phases=3 Linecode=2c_.0225 Length=0.095131 Units=m
New Line.LINE186_105 Bus1=186_104 Bus2=186_106 phases=3 Linecode=4c_.2 Length=12.2899 Units=m
New Line.LINE186_106 Bus1=186_105 Bus2=186_107 phases=3 Linecode=2c_.0225 Length=0.10948 Units=m
New Line.LINE186_107 Bus1=186_106 Bus2=186_108 phases=3 Linecode=4c_.2 Length=0.25809 Units=m
New Line.LINE186_108 Bus1=186_106 Bus2=186_109 phases=3 Linecode=4c_.2 Length=15.485 Units=m
New Line.LINE186_109 Bus1=186_107 Bus2=186_110 phases=3 Linecode=2c_.0225 Length=0.088006 Units=m
New Line.LINE186_110 Bus1=186_108 Bus2=186_111 phases=3 Linecode=4c_.2 Length=0.090443 Units=m
New Line.LINE186_111 Bus1=186_109 Bus2=186_112 phases=3 Linecode=2c_.0225_UA Length=13.4287 Units=m
New Line.LINE186_112 Bus1=186_109 Bus2=186_113 phases=3 Linecode=4c_.2 Length=0.15025 Units=m
New Line.LINE186_113 Bus1=186_110 Bus2=186_114 phases=3 Linecode=2c_.0225 Length=0.07569 Units=m
New Line.LINE186_114 Bus1=186_111 Bus2=186_115 phases=3 Linecode=4c_.2 Length=0.05511 Units=m
New Line.LINE186_115 Bus1=186_112 Bus2=186_116 phases=3 Linecode=2c_.0225_UA Length=2.9828 Units=m
New Line.LINE186_116 Bus1=186_112 Bus2=186_117 phases=3 Linecode=2c_.0225_UA Length=2.3452 Units=m
New Line.LINE186_117 Bus1=186_113 Bus2=186_118 phases=3 Linecode=4c_.2 Length=4.9565 Units=m
New Line.LINE186_118 Bus1=186_114 Bus2=186_119 phases=3 Linecode=2c_.0225 Length=0.085703 Units=m
New Line.LINE186_119 Bus1=186_115 Bus2=186_120 phases=3 Linecode=4c_.2 Length=0.07816 Units=m
New Line.LINE186_120 Bus1=186_116 Bus2=186_121 phases=3 Linecode=2c_.0225_UA Length=0.25927 Units=m
New Line.LINE186_121 Bus1=186_116 Bus2=186_122 phases=3 Linecode=2c_.0225_UA Length=3.8434 Units=m
New Line.LINE186_122 Bus1=186_117 Bus2=186_123 phases=3 Linecode=2c_.0225_UA Length=0.28804 Units=m
New Line.LINE186_123 Bus1=186_117 Bus2=186_124 phases=3 Linecode=2c_.0225_UA Length=3.5678 Units=m
New Line.LINE186_124 Bus1=186_118 Bus2=186_125 phases=3 Linecode=4c_.2 Length=16.7861 Units=m
New Line.LINE186_125 Bus1=186_119 Bus2=186_126 phases=3 Linecode=2c_.0225 Length=0.16415 Units=m
New Line.LINE186_126 Bus1=186_120 Bus2=186_127 phases=3 Linecode=4c_.2 Length=0.162 Units=m
New Line.LINE186_127 Bus1=186_121 Bus2=186_128 phases=3 Linecode=2c_.0225_UA Length=0.051245 Units=m
New Line.LINE186_128 Bus1=186_123 Bus2=186_129 phases=3 Linecode=2c_.0225_UA Length=0.060001 Units=m
New Line.LINE186_129 Bus1=186_125 Bus2=186_130 phases=3 Linecode=4c_.2 Length=7.7889 Units=m
New Line.LINE186_130 Bus1=186_126 Bus2=186_131 phases=3 Linecode=2c_.0225 Length=0.3206 Units=m
New Line.LINE186_131 Bus1=186_127 Bus2=186_132 phases=3 Linecode=4c_.2 Length=0.13366 Units=m
New Line.LINE186_132 Bus1=186_128 Bus2=186_133 phases=3 Linecode=2c_.0225_UA Length=0.04111 Units=m
New Line.LINE186_133 Bus1=186_129 Bus2=186_134 phases=3 Linecode=2c_.0225_UA Length=0.033614 Units=m
New Line.LINE186_134 Bus1=186_130 Bus2=186_135 phases=3 Linecode=2c_.0225 Length=0.33901 Units=m
New Line.LINE186_135 Bus1=186_130 Bus2=186_136 phases=3 Linecode=4c_.2 Length=0.94242 Units=m
New Line.LINE186_136 Bus1=186_131 Bus2=186_137 phases=3 Linecode=2c_.0225 Length=0.11928 Units=m
New Line.LINE186_137 Bus1=186_132 Bus2=186_138 phases=3 Linecode=4c_.2 Length=0.1591 Units=m
New Line.LINE186_138 Bus1=186_133 Bus2=186_139 phases=3 Linecode=2c_.0225_UA Length=0.03178 Units=m
New Line.LINE186_139 Bus1=186_134 Bus2=186_140 phases=3 Linecode=2c_.0225_UA Length=0.036056 Units=m
New Line.LINE186_140 Bus1=186_135 Bus2=186_141 phases=3 Linecode=2c_.0225 Length=0.21312 Units=m
New Line.LINE186_141 Bus1=186_136 Bus2=186_142 phases=3 Linecode=2c_.0225 Length=0.21378 Units=m
New Line.LINE186_142 Bus1=186_136 Bus2=186_143 phases=3 Linecode=4c_.2 Length=2.8309 Units=m
New Line.LINE186_143 Bus1=186_137 Bus2=186_144 phases=3 Linecode=2c_.0225 Length=0.14111 Units=m
New Line.LINE186_144 Bus1=186_138 Bus2=186_145 phases=3 Linecode=4c_.2 Length=0.15063 Units=m
New Line.LINE186_145 Bus1=186_139 Bus2=186_146 phases=3 Linecode=2c_.0225_UA Length=0.045277 Units=m
New Line.LINE186_146 Bus1=186_140 Bus2=186_147 phases=3 Linecode=2c_.0225_UA Length=0.036347 Units=m
New Line.LINE186_147 Bus1=186_141 Bus2=186_148 phases=3 Linecode=2c_.0225 Length=0.064405 Units=m
New Line.LINE186_148 Bus1=186_142 Bus2=186_149 phases=3 Linecode=2c_.0225 Length=0.074243 Units=m
New Line.LINE186_149 Bus1=186_143 Bus2=186_150 phases=3 Linecode=2c_.007_VIR Length=0.34146 Units=m
New Line.LINE186_150 Bus1=186_143 Bus2=186_151 phases=3 Linecode=4c_.2 Length=15.4187 Units=m
New Line.LINE186_151 Bus1=186_144 Bus2=186_152 phases=3 Linecode=2c_.0225 Length=0.18593 Units=m
New Line.LINE186_152 Bus1=186_145 Bus2=186_153 phases=3 Linecode=4c_.2 Length=0.17734 Units=m
New Line.LINE186_153 Bus1=186_146 Bus2=186_154 phases=3 Linecode=2c_.0225_UA Length=0.046487 Units=m
New Line.LINE186_154 Bus1=186_147 Bus2=186_155 phases=3 Linecode=2c_.0225_UA Length=0.034886 Units=m
New Line.LINE186_155 Bus1=186_148 Bus2=186_156 phases=3 Linecode=2c_.0225 Length=0.42293 Units=m
New Line.LINE186_156 Bus1=186_149 Bus2=186_157 phases=3 Linecode=2c_.0225 Length=0.053367 Units=m
New Line.LINE186_157 Bus1=186_150 Bus2=186_158 phases=3 Linecode=2c_.007_VIR Length=0.20907 Units=m
New Line.LINE186_158 Bus1=186_151 Bus2=186_159 phases=3 Linecode=4c_.2 Length=0.4436 Units=m
New Line.LINE186_159 Bus1=186_151 Bus2=186_160 phases=3 Linecode=4c_.2 Length=15.1238 Units=m
New Line.LINE186_160 Bus1=186_152 Bus2=186_161 phases=3 Linecode=2c_.0225 Length=0.15869 Units=m
New Line.LINE186_161 Bus1=186_153 Bus2=186_162 phases=3 Linecode=4c_.2 Length=0.17528 Units=m
New Line.LINE186_162 Bus1=186_154 Bus2=186_163 phases=3 Linecode=2c_.0225_UA Length=0.060519 Units=m
New Line.LINE186_163 Bus1=186_155 Bus2=186_164 phases=3 Linecode=2c_.0225_UA Length=0.041868 Units=m
New Line.LINE186_164 Bus1=186_156 Bus2=186_165 phases=3 Linecode=2c_.0225 Length=0.061718 Units=m
New Line.LINE186_165 Bus1=186_157 Bus2=186_166 phases=3 Linecode=2c_.0225 Length=0.20371 Units=m
New Line.LINE186_166 Bus1=186_158 Bus2=186_167 phases=3 Linecode=2c_.007_VIR Length=0.29003 Units=m
New Line.LINE186_167 Bus1=186_159 Bus2=186_168 phases=3 Linecode=4c_.2 Length=0.17322 Units=m
New Line.LINE186_168 Bus1=186_160 Bus2=186_169 phases=3 Linecode=2c_.0225_UA Length=10.104 Units=m
New Line.LINE186_169 Bus1=186_160 Bus2=186_170 phases=3 Linecode=4c_.2 Length=10.7182 Units=m
New Line.LINE186_170 Bus1=186_161 Bus2=186_171 phases=3 Linecode=2c_.0225 Length=0.10124 Units=m
New Line.LINE186_171 Bus1=186_162 Bus2=186_172 phases=3 Linecode=4c_.2 Length=0.073553 Units=m
New Line.LINE186_172 Bus1=186_163 Bus2=186_173 phases=3 Linecode=2c_.0225_UA Length=0.046716 Units=m
New Line.LINE186_173 Bus1=186_164 Bus2=186_174 phases=3 Linecode=2c_.0225_UA Length=0.038014 Units=m
New Line.LINE186_174 Bus1=186_165 Bus2=186_175 phases=3 Linecode=2c_.0225 Length=0.086884 Units=m
New Line.LINE186_175 Bus1=186_166 Bus2=186_176 phases=3 Linecode=2c_.0225 Length=0.08228 Units=m
New Line.LINE186_176 Bus1=186_167 Bus2=186_177 phases=3 Linecode=2c_.007_VIR Length=0.44464 Units=m
New Line.LINE186_177 Bus1=186_168 Bus2=186_178 phases=3 Linecode=4c_.2 Length=0.080523 Units=m
New Line.LINE186_178 Bus1=186_169 Bus2=186_179 phases=3 Linecode=2c_.0225_UA Length=0.46421 Units=m
New Line.LINE186_179 Bus1=186_170 Bus2=186_180 phases=3 Linecode=4c_.2 Length=6.4841 Units=m
New Line.LINE186_180 Bus1=186_171 Bus2=186_181 phases=3 Linecode=2c_.0225 Length=0.21915 Units=m
New Line.LINE186_181 Bus1=186_172 Bus2=186_182 phases=3 Linecode=4c_.2 Length=0.073 Units=m
New Line.LINE186_182 Bus1=186_173 Bus2=186_183 phases=3 Linecode=2c_.0225_UA Length=0.04965 Units=m
New Line.LINE186_183 Bus1=186_174 Bus2=186_184 phases=3 Linecode=2c_.0225_UA Length=0.041194 Units=m
New Line.LINE186_184 Bus1=186_175 Bus2=186_185 phases=3 Linecode=2c_.0225 Length=0.18361 Units=m
New Line.LINE186_185 Bus1=186_176 Bus2=186_186 phases=3 Linecode=2c_.0225 Length=0.13952 Units=m
New Line.LINE186_186 Bus1=186_178 Bus2=186_187 phases=3 Linecode=4c_.2 Length=0.12315 Units=m
New Line.LINE186_187 Bus1=186_179 Bus2=186_188 phases=3 Linecode=2c_.0225_UA Length=0.42568 Units=m
New Line.LINE186_188 Bus1=186_180 Bus2=186_189 phases=3 Linecode=4c_.2 Length=0.2569 Units=m
New Line.LINE186_189 Bus1=186_180 Bus2=186_190 phases=3 Linecode=4c_.2 Length=12.6123 Units=m
New Line.LINE186_190 Bus1=186_181 Bus2=186_191 phases=3 Linecode=2c_.0225 Length=5.1743 Units=m
New Line.LINE186_191 Bus1=186_182 Bus2=186_192 phases=3 Linecode=4c_.2 Length=0.1186 Units=m
New Line.LINE186_192 Bus1=186_183 Bus2=186_193 phases=3 Linecode=2c_.0225_UA Length=5.2467 Units=m
New Line.LINE186_193 Bus1=186_184 Bus2=186_194 phases=3 Linecode=2c_.0225_UA Length=0.039051 Units=m
New Line.LINE186_194 Bus1=186_185 Bus2=186_195 phases=3 Linecode=2c_.0225 Length=0.299 Units=m
New Line.LINE186_195 Bus1=186_186 Bus2=186_196 phases=3 Linecode=2c_.0225 Length=0.194 Units=m
New Line.LINE186_196 Bus1=186_187 Bus2=186_197 phases=3 Linecode=4c_.2 Length=0.10604 Units=m
New Line.LINE186_197 Bus1=186_188 Bus2=186_198 phases=3 Linecode=2c_.0225_UA Length=0.3887 Units=m
New Line.LINE186_198 Bus1=186_189 Bus2=186_199 phases=3 Linecode=4c_.2 Length=0.14217 Units=m
New Line.LINE186_199 Bus1=186_190 Bus2=186_200 phases=3 Linecode=2c_.0225 Length=0.68109 Units=m
New Line.LINE186_200 Bus1=186_190 Bus2=186_201 phases=3 Linecode=4c_.2 Length=0.73053 Units=m
New Line.LINE186_201 Bus1=186_191 Bus2=186_202 phases=3 Linecode=2c_.0225 Length=1.4065 Units=m
New Line.LINE186_202 Bus1=186_192 Bus2=186_203 phases=3 Linecode=4c_.2 Length=0.32319 Units=m
New Line.LINE186_203 Bus1=186_193 Bus2=186_204 phases=3 Linecode=2c_.0225_UA Length=3.1203 Units=m
New Line.LINE186_204 Bus1=186_194 Bus2=186_205 phases=3 Linecode=2c_.0225_UA Length=0.04624 Units=m
New Line.LINE186_205 Bus1=186_195 Bus2=186_206 phases=3 Linecode=2c_.0225 Length=0.1205 Units=m
New Line.LINE186_206 Bus1=186_196 Bus2=186_207 phases=3 Linecode=2c_.0225 Length=0.29653 Units=m
New Line.LINE186_207 Bus1=186_197 Bus2=186_208 phases=3 Linecode=4c_.2 Length=0.10032 Units=m
New Line.LINE186_208 Bus1=186_198 Bus2=186_209 phases=3 Linecode=2c_.0225_UA Length=0.33329 Units=m
New Line.LINE186_209 Bus1=186_199 Bus2=186_210 phases=3 Linecode=4c_.2 Length=0.28512 Units=m
New Line.LINE186_210 Bus1=186_200 Bus2=186_211 phases=3 Linecode=2c_.0225 Length=0.34442 Units=m
New Line.LINE186_211 Bus1=186_201 Bus2=186_212 phases=3 Linecode=2c_.0225 Length=0.33563 Units=m
New Line.LINE186_212 Bus1=186_201 Bus2=186_213 phases=3 Linecode=4c_.2 Length=1.4875 Units=m
New Line.LINE186_213 Bus1=186_202 Bus2=186_214 phases=3 Linecode=2c_.0225 Length=0.18738 Units=m
New Line.LINE186_214 Bus1=186_204 Bus2=186_215 phases=3 Linecode=2c_.0225_UA Length=2.5753 Units=m
New Line.LINE186_215 Bus1=186_205 Bus2=186_216 phases=3 Linecode=2c_.0225_UA Length=5.0079 Units=m
New Line.LINE186_216 Bus1=186_206 Bus2=186_217 phases=3 Linecode=2c_.0225 Length=0.13727 Units=m
New Line.LINE186_217 Bus1=186_207 Bus2=186_218 phases=3 Linecode=2c_.0225 Length=0.27137 Units=m
New Line.LINE186_218 Bus1=186_208 Bus2=186_219 phases=3 Linecode=4c_.2 Length=0.11345 Units=m
New Line.LINE186_219 Bus1=186_209 Bus2=186_220 phases=3 Linecode=2c_.0225_UA Length=0.40479 Units=m
New Line.LINE186_220 Bus1=186_210 Bus2=186_221 phases=3 Linecode=4c_.2 Length=0.073376 Units=m
New Line.LINE186_221 Bus1=186_211 Bus2=186_222 phases=3 Linecode=2c_.0225 Length=0.168 Units=m
New Line.LINE186_222 Bus1=186_212 Bus2=186_223 phases=3 Linecode=2c_.0225 Length=0.17545 Units=m
New Line.LINE186_223 Bus1=186_213 Bus2=186_224 phases=3 Linecode=4c_.2 Length=1.4715 Units=m
New Line.LINE186_224 Bus1=186_214 Bus2=186_225 phases=3 Linecode=2c_.0225 Length=0.19844 Units=m
New Line.LINE186_225 Bus1=186_216 Bus2=186_226 phases=3 Linecode=2c_.0225_UA Length=3.2308 Units=m
New Line.LINE186_226 Bus1=186_217 Bus2=186_227 phases=3 Linecode=2c_.0225 Length=0.9684 Units=m
New Line.LINE186_227 Bus1=186_218 Bus2=186_228 phases=3 Linecode=2c_.0225 Length=0.81174 Units=m
New Line.LINE186_228 Bus1=186_219 Bus2=186_229 phases=3 Linecode=4c_.2 Length=0.55652 Units=m
New Line.LINE186_229 Bus1=186_220 Bus2=186_230 phases=3 Linecode=2c_.0225_UA Length=0.40548 Units=m
New Line.LINE186_230 Bus1=186_221 Bus2=186_231 phases=3 Linecode=4c_.2 Length=0.080225 Units=m
New Line.LINE186_231 Bus1=186_222 Bus2=186_232 phases=3 Linecode=2c_.0225 Length=1.3251 Units=m
New Line.LINE186_232 Bus1=186_223 Bus2=186_233 phases=3 Linecode=2c_.0225 Length=0.2386 Units=m
New Line.LINE186_233 Bus1=186_224 Bus2=186_234 phases=3 Linecode=2c_.007_VIR Length=0.55392 Units=m
New Line.LINE186_234 Bus1=186_224 Bus2=186_235 phases=3 Linecode=4c_.2 Length=11.628 Units=m
New Line.LINE186_235 Bus1=186_225 Bus2=186_236 phases=3 Linecode=2c_.0225 Length=0.22101 Units=m
New Line.LINE186_236 Bus1=186_226 Bus2=186_237 phases=3 Linecode=2c_.0225_UA Length=0.82649 Units=m
New Line.LINE186_237 Bus1=186_227 Bus2=186_238 phases=3 Linecode=2c_.0225 Length=11.1907 Units=m
New Line.LINE186_238 Bus1=186_228 Bus2=186_239 phases=3 Linecode=2c_.0225 Length=11.1972 Units=m
New Line.LINE186_239 Bus1=186_229 Bus2=186_240 phases=3 Linecode=4c_.2 Length=0.15606 Units=m
New Line.LINE186_240 Bus1=186_230 Bus2=186_241 phases=3 Linecode=2c_.0225_UA Length=0.63408 Units=m
New Line.LINE186_241 Bus1=186_231 Bus2=186_242 phases=3 Linecode=4c_.2 Length=0.0902 Units=m
New Line.LINE186_242 Bus1=186_232 Bus2=186_243 phases=3 Linecode=2c_.0225 Length=5.571 Units=m
New Line.LINE186_243 Bus1=186_233 Bus2=186_244 phases=3 Linecode=2c_.0225 Length=0.31436 Units=m
New Line.LINE186_244 Bus1=186_234 Bus2=186_245 phases=3 Linecode=2c_.007_VIR Length=0.13074 Units=m
New Line.LINE186_245 Bus1=186_235 Bus2=186_246 phases=3 Linecode=4c_.2 Length=11.7004 Units=m
New Line.LINE186_246 Bus1=186_236 Bus2=186_247 phases=3 Linecode=2c_.0225 Length=0.27354 Units=m
New Line.LINE186_247 Bus1=186_238 Bus2=186_248 phases=3 Linecode=2c_.0225 Length=0.95501 Units=m
New Line.LINE186_248 Bus1=186_239 Bus2=186_249 phases=3 Linecode=2c_.0225 Length=1.2123 Units=m
New Line.LINE186_249 Bus1=186_240 Bus2=186_250 phases=3 Linecode=4c_.2 Length=0.48657 Units=m
New Line.LINE186_250 Bus1=186_241 Bus2=186_251 phases=3 Linecode=2c_.0225_UA Length=0.65177 Units=m
New Line.LINE186_251 Bus1=186_242 Bus2=186_252 phases=3 Linecode=4c_.2 Length=0.068411 Units=m
New Line.LINE186_252 Bus1=186_243 Bus2=186_253 phases=3 Linecode=2c_.0225 Length=5.6431 Units=m
New Line.LINE186_253 Bus1=186_244 Bus2=186_254 phases=3 Linecode=2c_.0225 Length=0.10492 Units=m
New Line.LINE186_254 Bus1=186_245 Bus2=186_255 phases=3 Linecode=2c_.007_VIR Length=0.094202 Units=m
New Line.LINE186_255 Bus1=186_246 Bus2=186_256 phases=3 Linecode=4c_.2 Length=8.413 Units=m
New Line.LINE186_256 Bus1=186_247 Bus2=186_257 phases=3 Linecode=2c_.0225 Length=0.14714 Units=m
New Line.LINE186_257 Bus1=186_248 Bus2=186_258 phases=3 Linecode=2c_.0225 Length=0.21002 Units=m
New Line.LINE186_258 Bus1=186_249 Bus2=186_259 phases=3 Linecode=2c_.0225 Length=0.13572 Units=m
New Line.LINE186_259 Bus1=186_251 Bus2=186_260 phases=3 Linecode=2c_.0225_UA Length=1.9286 Units=m
New Line.LINE186_260 Bus1=186_251 Bus2=186_261 phases=3 Linecode=2c_.0225_UA Length=3.2982 Units=m
New Line.LINE186_261 Bus1=186_252 Bus2=186_262 phases=3 Linecode=4c_.2 Length=0.10102 Units=m
New Line.LINE186_262 Bus1=186_253 Bus2=186_263 phases=3 Linecode=2c_.0225 Length=0.32311 Units=m
New Line.LINE186_263 Bus1=186_254 Bus2=186_264 phases=3 Linecode=2c_.0225 Length=0.099298 Units=m
New Line.LINE186_264 Bus1=186_255 Bus2=186_265 phases=3 Linecode=2c_.007_VIR Length=0.16349 Units=m
New Line.LINE186_265 Bus1=186_256 Bus2=186_266 phases=3 Linecode=3c_.03_UA Length=0.22605 Units=m
New Line.LINE186_266 Bus1=186_256 Bus2=186_267 phases=3 Linecode=4c_.2 Length=10.1605 Units=m
New Line.LINE186_267 Bus1=186_257 Bus2=186_268 phases=3 Linecode=2c_.0225 Length=0.24413 Units=m
New Line.LINE186_268 Bus1=186_258 Bus2=186_269 phases=3 Linecode=2c_.0225 Length=0.21467 Units=m
New Line.LINE186_269 Bus1=186_259 Bus2=186_270 phases=3 Linecode=2c_.0225 Length=0.108 Units=m
New Line.LINE186_270 Bus1=186_260 Bus2=186_271 phases=3 Linecode=2c_.0225_UA Length=0.26393 Units=m
New Line.LINE186_271 Bus1=186_260 Bus2=186_272 phases=3 Linecode=3c_.03_UA Length=3.0516 Units=m
New Line.LINE186_272 Bus1=186_261 Bus2=186_273 phases=3 Linecode=2c_.0225_UA Length=0.27356 Units=m
New Line.LINE186_273 Bus1=186_261 Bus2=186_274 phases=3 Linecode=3c_.03_UA Length=2.6488 Units=m
New Line.LINE186_274 Bus1=186_262 Bus2=186_275 phases=3 Linecode=4c_.2 Length=0.95799 Units=m
New Line.LINE186_275 Bus1=186_263 Bus2=186_276 phases=3 Linecode=2c_.0225 Length=0.31227 Units=m
New Line.LINE186_276 Bus1=186_264 Bus2=186_277 phases=3 Linecode=2c_.0225 Length=0.17763 Units=m
New Line.LINE186_277 Bus1=186_266 Bus2=186_278 phases=3 Linecode=3c_.03_UA Length=0.10024 Units=m
New Line.LINE186_278 Bus1=186_267 Bus2=186_279 phases=3 Linecode=4c_.2 Length=2.6229 Units=m
New Line.LINE186_279 Bus1=186_268 Bus2=186_280 phases=3 Linecode=2c_.0225 Length=4.2996 Units=m
New Line.LINE186_280 Bus1=186_269 Bus2=186_281 phases=3 Linecode=2c_.0225 Length=0.22252 Units=m
New Line.LINE186_281 Bus1=186_270 Bus2=186_282 phases=3 Linecode=2c_.0225 Length=0.25397 Units=m
New Line.LINE186_282 Bus1=186_271 Bus2=186_283 phases=3 Linecode=2c_.0225_UA Length=0.063126 Units=m
New Line.LINE186_283 Bus1=186_273 Bus2=186_284 phases=3 Linecode=2c_.0225_UA Length=0.049635 Units=m
New Line.LINE186_284 Bus1=186_276 Bus2=186_285 phases=3 Linecode=2c_.0225 Length=0.28398 Units=m
New Line.LINE186_285 Bus1=186_277 Bus2=186_286 phases=3 Linecode=2c_.0225 Length=0.47881 Units=m
New Line.LINE186_286 Bus1=186_278 Bus2=186_287 phases=3 Linecode=3c_.03_UA Length=0.18202 Units=m
New Line.LINE186_287 Bus1=186_279 Bus2=186_288 phases=3 Linecode=2c_4_Cd Length=0.22695 Units=m
New Line.LINE186_288 Bus1=186_279 Bus2=186_289 phases=3 Linecode=4c_.2 Length=3.1728 Units=m
New Line.LINE186_289 Bus1=186_280 Bus2=186_290 phases=3 Linecode=2c_.0225 Length=3.2657 Units=m
New Line.LINE186_290 Bus1=186_281 Bus2=186_291 phases=3 Linecode=2c_.0225 Length=0.222 Units=m
New Line.LINE186_291 Bus1=186_282 Bus2=186_292 phases=3 Linecode=2c_.0225 Length=0.20392 Units=m
New Line.LINE186_292 Bus1=186_283 Bus2=186_293 phases=3 Linecode=2c_.0225_UA Length=0.052202 Units=m
New Line.LINE186_293 Bus1=186_284 Bus2=186_294 phases=3 Linecode=2c_.0225_UA Length=0.036503 Units=m
New Line.LINE186_294 Bus1=186_285 Bus2=186_295 phases=3 Linecode=2c_.0225 Length=0.46609 Units=m
New Line.LINE186_295 Bus1=186_286 Bus2=186_296 phases=3 Linecode=2c_.0225 Length=5.1231 Units=m
New Line.LINE186_296 Bus1=186_287 Bus2=186_297 phases=3 Linecode=3c_.03_UA Length=0.12015 Units=m
New Line.LINE186_297 Bus1=186_288 Bus2=186_298 phases=3 Linecode=2c_4_Cd Length=0.083006 Units=m
New Line.LINE186_298 Bus1=186_289 Bus2=186_299 phases=3 Linecode=4c_.2 Length=6.7752 Units=m
New Line.LINE186_299 Bus1=186_290 Bus2=186_300 phases=3 Linecode=2c_.0225 Length=0.19725 Units=m
New Line.LINE186_300 Bus1=186_291 Bus2=186_301 phases=3 Linecode=2c_.0225 Length=0.24241 Units=m
New Line.LINE186_301 Bus1=186_292 Bus2=186_302 phases=3 Linecode=2c_.0225 Length=0.12279 Units=m
New Line.LINE186_302 Bus1=186_293 Bus2=186_303 phases=3 Linecode=2c_.0225_UA Length=0.040359 Units=m
New Line.LINE186_303 Bus1=186_294 Bus2=186_304 phases=3 Linecode=2c_.0225_UA Length=0.086967 Units=m
New Line.LINE186_304 Bus1=186_295 Bus2=186_305 phases=3 Linecode=2c_.0225 Length=0.35759 Units=m
New Line.LINE186_305 Bus1=186_296 Bus2=186_306 phases=3 Linecode=2c_.0225 Length=6.3158 Units=m
New Line.LINE186_306 Bus1=186_297 Bus2=186_307 phases=3 Linecode=3c_.03_UA Length=0.14425 Units=m
New Line.LINE186_307 Bus1=186_298 Bus2=186_308 phases=3 Linecode=2c_4_Cd Length=0.059908 Units=m
New Line.LINE186_308 Bus1=186_299 Bus2=186_309 phases=3 Linecode=4c_.2 Length=6.5683 Units=m
New Line.LINE186_309 Bus1=186_300 Bus2=186_310 phases=3 Linecode=2c_.0225 Length=0.26097 Units=m
New Line.LINE186_310 Bus1=186_301 Bus2=186_311 phases=3 Linecode=2c_.0225 Length=0.282 Units=m
New Line.LINE186_311 Bus1=186_302 Bus2=186_312 phases=3 Linecode=2c_.0225 Length=0.095691 Units=m
New Line.LINE186_312 Bus1=186_303 Bus2=186_313 phases=3 Linecode=2c_.0225_UA Length=0.05954 Units=m
New Line.LINE186_313 Bus1=186_304 Bus2=186_314 phases=3 Linecode=2c_.0225_UA Length=0.046043 Units=m
New Line.LINE186_314 Bus1=186_305 Bus2=186_315 phases=3 Linecode=2c_.0225 Length=0.2902 Units=m
New Line.LINE186_315 Bus1=186_306 Bus2=186_316 phases=3 Linecode=2c_.0225 Length=0.3582 Units=m