New Line.LINE111 Bus1=109 Bus2=112 phases=3 Linecode=2c_.0225_UA Length=13.4287 Units=m
New Line.LINE115 Bus1=112 Bus2=116 phases=3 Linecode=2c_.0225_UA Length=2.9828 Units=m
New Line.LINE116 Bus1=112 Bus2=117 phases=3 Linecode=2c_.0225_UA Length=2.3452 Units=m
New Line.LINE121 Bus1=116 Bus2=122 phases=3 Linecode=2c_.0225_UA Length=3.8434 Units=m
New Line.LINE123 Bus1=117 Bus2=124 phases=3 Linecode=2c_.0225_UA Length=3.5678 Units=m
New Line.LINE135 Bus1=130 Bus2=136 phases=3 Linecode=4c_.2 Length=0.94242 Units=m
New Line.LINE200 Bus1=190 Bus2=201 phases=3 Linecode=4c_.2 Length=0.73053 Units=m
New Line.LINE212 Bus1=201 Bus2=213 phases=3 Linecode=4c_.2 Length=1.4875 Units=m
New Line.LINE223 Bus1=213 Bus2=224 phases=3 Linecode=4c_.2 Length=1.4715 Units=m
New Line.LINE234 Bus1=224 Bus2=235 phases=3 Linecode=4c_.2 Length=11.628 Units=m
New Line.LINE245 Bus1=235 Bus2=246 phases=3 Linecode=4c_.2 Length=11.7004 Units=m
New Line.LINE255 Bus1=246 Bus2=256 phases=3 Linecode=4c_.2 Length=8.413 Units=m
New Line.LINE259 Bus1=251 Bus2=260 phases=3 Linecode=2c_.0225_UA Length=1.9286 Units=m
New Line.LINE260 Bus1=251 Bus2=261 phases=3 Linecode=2c_.0225_UA Length=3.2982 Units=m
New Line.LINE265 Bus1=256 Bus2=266 phases=3 Linecode=3c_.03_UA Length=0.22605 Units=m
New Line.LINE271 Bus1=260 Bus2=272 phases=3 Linecode=3c_.03_UA Length=3.0516 Units=m
New Line.LINE273 Bus1=261 Bus2=274 phases=3 Linecode=3c_.03_UA Length=2.6488 Units=m
New Line.LINE277 Bus1=266 Bus2=278 phases=3 Linecode=3c_.03_UA Length=0.10024 Units=m
New Line.LINE286 Bus1=278 Bus2=287 phases=3 Linecode=3c_.03_UA Length=0.18202 Units=m
New Line.LINE296 Bus1=287 Bus2=297 phases=3 Linecode=3c_.03_UA Length=0.12015 Units=m
New Line.LINE306 Bus1=297 Bus2=307 phases=3 Linecode=3c_.03_UA Length=0.14425 Units=m
New Line.LINE316 Bus1=307 Bus2=317 phases=3 Linecode=3c_.03_UA Length=0.16903 Units=m
New Line.LINE326 Bus1=317 Bus2=327 phases=3 Linecode=3c_.03_UA Length=0.10197 Units=m
New Line.LINE336 Bus1=327 Bus2=337 phases=3 Linecode=3c_.03_UA Length=0.070005 Units=m
New Line.LINE346 Bus1=337 Bus2=347 phases=3 Linecode=3c_.03_UA Length=0.14009 Units=m
New Line.LINE356 Bus1=347 Bus2=357 phases=3 Linecode=3c_.03_UA Length=0.102 Units=m
New Line.LINE366 Bus1=357 Bus2=367 phases=3 Linecode=3c_.03_UA Length=0.091241 Units=m
New Line.LINE376 Bus1=367 Bus2=377 phases=3 Linecode=3c_.03_UA Length=0.11498 Units=m
New Line.LINE385 Bus1=377 Bus2=386 phases=3 Linecode=3c_.03_UA Length=0.82904 Units=m
New Line.LINE388 Bus1=379 Bus2=389 phases=3 Linecode=2c_.0225 Length=1.0944 Units=m
New Line.LINE394 Bus1=386 Bus2=395 phases=3 Linecode=3c_.03_UA Length=0.12504 Units=m
New Line.LINE398 Bus1=390 Bus2=399 phases=3 Linecode=2c_.0225 Length=0.67617 Units=m
New Line.LINE402 Bus1=395 Bus2=403 phases=3 Linecode=3c_.03_UA Length=0.13132 Units=m
New Line.LINE409 Bus1=403 Bus2=410 phases=3 Linecode=3c_.03_UA Length=4.5227 Units=m
New Line.LINE416 Bus1=410 Bus2=417 phases=3 Linecode=3c_.03_UA Length=7.8143 Units=m
New Line.LINE421 Bus1=414 Bus2=422 phases=3 Linecode=2c_.0225 Length=1.0686 Units=m
New Line.LINE424 Bus1=417 Bus2=425 phases=3 Linecode=3c_.03_UA Length=2.4773 Units=m
New Line.LINE432 Bus1=425 Bus2=433 phases=3 Linecode=3c_.03_UA Length=2.0264 Units=m
New Line.LINE441 Bus1=434 Bus2=442 phases=3 Linecode=3c_.03_UA Length=2.2572 Units=m
New Line.LINE460 Bus1=453 Bus2=461 phases=3 Linecode=2c_.0225 Length=2.602 Units=m
New Line.LINE476 Bus1=469 Bus2=477 phases=3 Linecode=2c_.0225 Length=1.0642 Units=m
New Line.LINECmpd_0 Bus1=201 Bus2=469 phases=3 Linecode=2c_.0225 Length=21.488198 Units=m
New Line.LINECmpd_1 Bus1=453 Bus2=528 phases=3 Linecode=2c_.0225 Length=7.370763 Units=m
New Line.LINECmpd_2 Bus1=1 Bus2=81 phases=3 Linecode=4c_.2 Length=66.130425 Units=m
New Line.LINECmpd_3 Bus1=81 Bus2=379 phases=3 Linecode=2c_.0225 Length=23.694401 Units=m
New Line.LINECmpd_4 Bus1=130 Bus2=390 phases=3 Linecode=2c_.0225 Length=20.991697 Units=m
New Line.LINECmpd_5 Bus1=81 Bus2=109 phases=3 Linecode=4c_.2 Length=38.8087 Units=m
New Line.LINECmpd_6 Bus1=414 Bus2=481 phases=3 Linecode=2c_.0225 Length=7.939007 Units=m
New Line.LINECmpd_7 Bus1=160 Bus2=251 phases=3 Linecode=2c_.0225_UA Length=13.812 Units=m
New Line.LINECmpd_8 Bus1=434 Bus2=503 phases=3 Linecode=3c_.03_UA Length=10.766515 Units=m
New Line.LINECmpd_9 Bus1=425 Bus2=509 phases=3 Linecode=3c_.03_UA Length=9.0769 Units=m
New Line.LINECmpd_10 Bus1=190 Bus2=453 phases=3 Linecode=2c_.0225 Length=20.36946 Units=m
New Line.LINECmpd_11 Bus1=136 Bus2=414 phases=3 Linecode=2c_.0225 Length=22.583075 Units=m
New Line.LINECmpd_12 Bus1=379 Bus2=491 phases=3 Linecode=2c_.0225 Length=7.255583 Units=m
New Line.LINECmpd_13 Bus1=260 Bus2=382 phases=3 Linecode=2c_.0225_UA Length=11.979671 Units=m
New Line.LINECmpd_14 Bus1=116 Bus2=215 phases=3 Linecode=2c_.0225_UA Length=11.574354 Units=m
New Line.LINECmpd_15 Bus1=390 Bus2=473 phases=3 Linecode=2c_.0225 Length=6.625385 Units=m
New Line.LINECmpd_16 Bus1=117 Bus2=237 phases=3 Linecode=2c_.0225_UA Length=9.760501 Units=m
New Line.LINECmpd_17 Bus1=469 Bus2=531 phases=3 Linecode=2c_.0225 Length=9.292858 Units=m
New Line.LINECmpd_18 Bus1=261 Bus2=392 phases=3 Linecode=2c_.0225_UA Length=10.22464 Units=m
New Line.LINECmpd_19 Bus1=109 Bus2=130 phases=3 Linecode=4c_.2 Length=29.68175 Units=m
New Line.LINECmpd_20 Bus1=136 Bus2=160 phases=3 Linecode=4c_.2 Length=33.3734 Units=m
New Line.LINECmpd_21 Bus1=417 Bus2=434 phases=3 Linecode=3c_.03_UA Length=3.1002 Units=m
New Line.LINECmpd_22 Bus1=160 Bus2=190 phases=3 Linecode=4c_.2 Length=29.8146 Units=m
