New Line.LINE186_111 Bus1=186_109 Bus2=186_112 phases=3 Linecode=2c_.0225_UA Length=13.4287 Units=m
New Line.LINE186_115 Bus1=186_112 Bus2=186_116 phases=3 Linecode=2c_.0225_UA Length=2.9828 Units=m
New Line.LINE186_116 Bus1=186_112 Bus2=186_117 phases=3 Linecode=2c_.0225_UA Length=2.3452 Units=m
New Line.LINE186_121 Bus1=186_116 Bus2=186_122 phases=3 Linecode=2c_.0225_UA Length=3.8434 Units=m
New Line.LINE186_123 Bus1=186_117 Bus2=186_124 phases=3 Linecode=2c_.0225_UA Length=3.5678 Units=m
New Line.LINE186_135 Bus1=186_130 Bus2=186_136 phases=3 Linecode=4c_.2 Length=0.94242 Units=m
New Line.LINE186_200 Bus1=186_190 Bus2=186_201 phases=3 Linecode=4c_.2 Length=0.73053 Units=m
New Line.LINE186_259 Bus1=186_251 Bus2=186_260 phases=3 Linecode=2c_.0225_UA Length=1.9286 Units=m
New Line.LINE186_260 Bus1=186_251 Bus2=186_261 phases=3 Linecode=2c_.0225_UA Length=3.2982 Units=m
New Line.LINE186_271 Bus1=186_260 Bus2=186_272 phases=3 Linecode=3c_.03_UA Length=3.0516 Units=m
New Line.LINE186_273 Bus1=186_261 Bus2=186_274 phases=3 Linecode=3c_.03_UA Length=2.6488 Units=m
New Line.LINE186_388 Bus1=186_379 Bus2=186_389 phases=3 Linecode=2c_.0225 Length=1.0944 Units=m
New Line.LINE186_398 Bus1=186_390 Bus2=186_399 phases=3 Linecode=2c_.0225 Length=0.67617 Units=m
New Line.LINE186_421 Bus1=186_414 Bus2=186_422 phases=3 Linecode=2c_.0225 Length=1.0686 Units=m
New Line.LINE186_424 Bus1=186_417 Bus2=186_425 phases=3 Linecode=3c_.03_UA Length=2.4773 Units=m
New Line.LINE186_432 Bus1=186_425 Bus2=186_433 phases=3 Linecode=3c_.03_UA Length=2.0264 Units=m
New Line.LINE186_441 Bus1=186_434 Bus2=186_442 phases=3 Linecode=3c_.03_UA Length=2.2572 Units=m
New Line.LINE186_460 Bus1=186_453 Bus2=186_461 phases=3 Linecode=2c_.0225 Length=2.602 Units=m
New Line.LINE186_476 Bus1=186_469 Bus2=186_477 phases=3 Linecode=2c_.0225 Length=1.0642 Units=m
New Line.LINE186_Cmpd_0 Bus1=186_260 Bus2=186_382 phases=3 Linecode=2c_.0225_UA Length=11.979671 Units=m
New Line.LINE186_Cmpd_1 Bus1=186_1 Bus2=186_81 phases=3 Linecode=4c_.2 Length=66.130425 Units=m
New Line.LINE186_Cmpd_2 Bus1=186_81 Bus2=186_379 phases=3 Linecode=2c_.0225 Length=23.694401 Units=m
New Line.LINE186_Cmpd_3 Bus1=186_117 Bus2=186_237 phases=3 Linecode=2c_.0225_UA Length=9.760501 Units=m
New Line.LINE186_Cmpd_4 Bus1=186_190 Bus2=186_453 phases=3 Linecode=2c_.0225 Length=20.36946 Units=m
New Line.LINE186_Cmpd_5 Bus1=186_136 Bus2=186_414 phases=3 Linecode=2c_.0225 Length=22.583075 Units=m
New Line.LINE186_Cmpd_6 Bus1=186_160 Bus2=186_251 phases=3 Linecode=2c_.0225_UA Length=13.812 Units=m
New Line.LINE186_Cmpd_7 Bus1=186_201 Bus2=186_469 phases=3 Linecode=2c_.0225 Length=21.488198 Units=m
New Line.LINE186_Cmpd_8 Bus1=186_256 Bus2=186_417 phases=3 Linecode=3c_.03_UA Length=14.984426 Units=m
New Line.LINE186_Cmpd_9 Bus1=186_116 Bus2=186_215 phases=3 Linecode=2c_.0225_UA Length=11.574354 Units=m
New Line.LINE186_Cmpd_10 Bus1=186_130 Bus2=186_390 phases=3 Linecode=2c_.0225 Length=20.991697 Units=m
New Line.LINE186_Cmpd_11 Bus1=186_469 Bus2=186_531 phases=3 Linecode=2c_.0225 Length=9.292858 Units=m
New Line.LINE186_Cmpd_12 Bus1=186_379 Bus2=186_491 phases=3 Linecode=2c_.0225 Length=7.255583 Units=m
New Line.LINE186_Cmpd_13 Bus1=186_417 Bus2=186_434 phases=3 Linecode=3c_.03_UA Length=3.1002 Units=m
New Line.LINE186_Cmpd_14 Bus1=186_453 Bus2=186_528 phases=3 Linecode=2c_.0225 Length=7.370763 Units=m
New Line.LINE186_Cmpd_15 Bus1=186_81 Bus2=186_109 phases=3 Linecode=4c_.2 Length=38.8087 Units=m
New Line.LINE186_Cmpd_16 Bus1=186_390 Bus2=186_473 phases=3 Linecode=2c_.0225 Length=6.625385 Units=m
New Line.LINE186_Cmpd_17 Bus1=186_160 Bus2=186_190 phases=3 Linecode=4c_.2 Length=29.8146 Units=m
New Line.LINE186_Cmpd_18 Bus1=186_261 Bus2=186_392 phases=3 Linecode=2c_.0225_UA Length=10.22464 Units=m
New Line.LINE186_Cmpd_19 Bus1=186_425 Bus2=186_509 phases=3 Linecode=3c_.03_UA Length=9.0769 Units=m
New Line.LINE186_Cmpd_20 Bus1=186_414 Bus2=186_481 phases=3 Linecode=2c_.0225 Length=7.939007 Units=m
New Line.LINE186_Cmpd_21 Bus1=186_201 Bus2=186_256 phases=3 Linecode=4c_.2 Length=34.7004 Units=m
New Line.LINE186_Cmpd_22 Bus1=186_109 Bus2=186_130 phases=3 Linecode=4c_.2 Length=29.68175 Units=m
New Line.LINE186_Cmpd_23 Bus1=186_434 Bus2=186_503 phases=3 Linecode=3c_.03_UA Length=10.766515 Units=m
New Line.LINE186_Cmpd_24 Bus1=186_136 Bus2=186_160 phases=3 Linecode=4c_.2 Length=33.3734 Units=m
