New Load.LOAD186_1 Phases=1 Bus1=186_122.2 kV=0.23 kW=1 PF=0.95
New Load.LOAD186_2 Phases=1 Bus1=186_124.3 kV=0.23 kW=1 PF=0.95
New Load.LOAD186_3 Phases=1 Bus1=186_215.2 kV=0.23 kW=1 PF=0.95
New Load.LOAD186_4 Phases=1 Bus1=186_237.3 kV=0.23 kW=1 PF=0.95
New Load.LOAD186_5 Phases=1 Bus1=186_272.3 kV=0.23 kW=1 PF=0.95
New Load.LOAD186_6 Phases=1 Bus1=186_274.3 kV=0.23 kW=1 PF=0.95
New Load.LOAD186_7 Phases=1 Bus1=186_382.3 kV=0.23 kW=1 PF=0.95
New Load.LOAD186_8 Phases=1 Bus1=186_389.1 kV=0.23 kW=1 PF=0.95
New Load.LOAD186_9 Phases=1 Bus1=186_392.1 kV=0.23 kW=1 PF=0.95
New Load.LOAD186_10 Phases=1 Bus1=186_399.1 kV=0.23 kW=1 PF=0.95
New Load.LOAD186_11 Phases=1 Bus1=186_422.2 kV=0.23 kW=1 PF=0.95
New Load.LOAD186_12 Phases=1 Bus1=186_433.3 kV=0.23 kW=1 PF=0.95
New Load.LOAD186_13 Phases=1 Bus1=186_442.3 kV=0.23 kW=1 PF=0.95
New Load.LOAD186_14 Phases=1 Bus1=186_461.2 kV=0.23 kW=1 PF=0.95
New Load.LOAD186_15 Phases=1 Bus1=186_473.1 kV=0.23 kW=1 PF=0.95
New Load.LOAD186_16 Phases=1 Bus1=186_477.3 kV=0.23 kW=1 PF=0.95
New Load.LOAD186_17 Phases=1 Bus1=186_481.2 kV=0.23 kW=1 PF=0.95
New Load.LOAD186_18 Phases=1 Bus1=186_491.1 kV=0.23 kW=1 PF=0.95
New Load.LOAD186_19 Phases=1 Bus1=186_503.3 kV=0.23 kW=1 PF=0.95
New Load.LOAD186_20 Phases=1 Bus1=186_509.3 kV=0.23 kW=1 PF=0.95
New Load.LOAD186_21 Phases=1 Bus1=186_528.2 kV=0.23 kW=1 PF=0.95
New Load.LOAD186_22 Phases=1 Bus1=186_531.3 kV=0.23 kW=1 PF=0.95
