New Line.LINE13_1 Bus1=13_1 Bus2=13_2 phases=3 Linecode=4c_70 Length=1.4242 Units=m
New Line.LINE13_2 Bus1=13_2 Bus2=13_3 phases=3 Linecode=4c_70 Length=0.091269 Units=m
New Line.LINE13_3 Bus1=13_3 Bus2=13_4 phases=3 Linecode=4c_70 Length=0.070036 Units=m
New Line.LINE13_4 Bus1=13_4 Bus2=13_5 phases=3 Linecode=4c_70 Length=0.106 Units=m
New Line.LINE13_5 Bus1=13_5 Bus2=13_6 phases=3 Linecode=4c_70 Length=0.089828 Units=m
New Line.LINE13_6 Bus1=13_6 Bus2=13_7 phases=3 Linecode=4c_70 Length=0.10512 Units=m
New Line.LINE13_7 Bus1=13_7 Bus2=13_8 phases=3 Linecode=4c_70 Length=11.3551 Units=m
New Line.LINE13_8 Bus1=13_8 Bus2=13_9 phases=3 Linecode=4c_70 Length=0.32289 Units=m
New Line.LINE13_9 Bus1=13_9 Bus2=13_10 phases=3 Linecode=4c_70 Length=0.2222 Units=m
New Line.LINE13_10 Bus1=13_10 Bus2=13_11 phases=3 Linecode=4c_70 Length=0.29925 Units=m
New Line.LINE13_11 Bus1=13_11 Bus2=13_12 phases=3 Linecode=4c_70 Length=0.33049 Units=m
New Line.LINE13_12 Bus1=13_12 Bus2=13_13 phases=3 Linecode=4c_70 Length=0.3217 Units=m
New Line.LINE13_13 Bus1=13_13 Bus2=13_14 phases=3 Linecode=4c_70 Length=0.4247 Units=m
New Line.LINE13_14 Bus1=13_14 Bus2=13_15 phases=3 Linecode=4c_70 Length=7.3517 Units=m
New Line.LINE13_15 Bus1=13_15 Bus2=13_16 phases=3 Linecode=4c_70 Length=11.2952 Units=m
New Line.LINE13_16 Bus1=13_16 Bus2=13_17 phases=3 Linecode=4c_70 Length=6.8889 Units=m
New Line.LINE13_17 Bus1=13_17 Bus2=13_18 phases=3 Linecode=4c_70 Length=0.11032 Units=m
New Line.LINE13_18 Bus1=13_18 Bus2=13_19 phases=3 Linecode=4c_70 Length=0.065765 Units=m
New Line.LINE13_19 Bus1=13_19 Bus2=13_20 phases=3 Linecode=4c_70 Length=0.051 Units=m
New Line.LINE13_20 Bus1=13_20 Bus2=13_21 phases=3 Linecode=4c_70 Length=0.044102 Units=m
New Line.LINE13_21 Bus1=13_21 Bus2=13_22 phases=3 Linecode=4c_70 Length=0.037 Units=m
New Line.LINE13_22 Bus1=13_22 Bus2=13_23 phases=3 Linecode=4c_70 Length=0.10045 Units=m
New Line.LINE13_23 Bus1=13_23 Bus2=13_24 phases=3 Linecode=4c_70 Length=0.092542 Units=m
New Line.LINE13_24 Bus1=13_24 Bus2=13_25 phases=3 Linecode=4c_70 Length=0.071344 Units=m
New Line.LINE13_25 Bus1=13_25 Bus2=13_26 phases=3 Linecode=4c_70 Length=0.047854 Units=m
New Line.LINE13_26 Bus1=13_26 Bus2=13_27 phases=3 Linecode=4c_70 Length=6.557 Units=m
New Line.LINE13_27 Bus1=13_27 Bus2=13_28 phases=3 Linecode=4c_70 Length=0.073055 Units=m
New Line.LINE13_28 Bus1=13_28 Bus2=13_29 phases=3 Linecode=4c_70 Length=0.043277 Units=m
New Line.LINE13_29 Bus1=13_29 Bus2=13_30 phases=3 Linecode=4c_70 Length=0.057429 Units=m
New Line.LINE13_30 Bus1=13_30 Bus2=13_31 phases=3 Linecode=4c_70 Length=0.053038 Units=m
New Line.LINE13_31 Bus1=13_31 Bus2=13_32 phases=3 Linecode=4c_70 Length=0.061465 Units=m
New Line.LINE13_32 Bus1=13_32 Bus2=13_33 phases=3 Linecode=4c_70 Length=0.094557 Units=m
New Line.LINE13_33 Bus1=13_33 Bus2=13_34 phases=3 Linecode=4c_70 Length=0.20573 Units=m
New Line.LINE13_34 Bus1=13_34 Bus2=13_35 phases=3 Linecode=4c_70 Length=0.45834 Units=m
New Line.LINE13_35 Bus1=13_35 Bus2=13_36 phases=3 Linecode=4c_70 Length=0.24217 Units=m
New Line.LINE13_36 Bus1=13_36 Bus2=13_37 phases=3 Linecode=4c_70 Length=0.17101 Units=m
New Line.LINE13_37 Bus1=13_37 Bus2=13_38 phases=3 Linecode=4c_70 Length=0.28929 Units=m
New Line.LINE13_38 Bus1=13_37 Bus2=13_39 phases=3 Linecode=4c_70 Length=0.10823 Units=m
New Line.LINE13_39 Bus1=13_38 Bus2=13_40 phases=3 Linecode=4c_70 Length=0.15571 Units=m
New Line.LINE13_40 Bus1=13_39 Bus2=13_41 phases=3 Linecode=4c_70 Length=0.090697 Units=m
New Line.LINE13_41 Bus1=13_40 Bus2=13_42 phases=3 Linecode=4c_70 Length=0.13321 Units=m
New Line.LINE13_42 Bus1=13_41 Bus2=13_43 phases=3 Linecode=4c_70 Length=0.12357 Units=m
New Line.LINE13_43 Bus1=13_42 Bus2=13_44 phases=3 Linecode=4c_70 Length=0.17477 Units=m
New Line.LINE13_44 Bus1=13_43 Bus2=13_45 phases=3 Linecode=4c_70 Length=0.19507 Units=m
New Line.LINE13_45 Bus1=13_44 Bus2=13_46 phases=3 Linecode=4c_70 Length=0.20241 Units=m
New Line.LINE13_46 Bus1=13_45 Bus2=13_47 phases=3 Linecode=4c_70 Length=0.28694 Units=m
New Line.LINE13_47 Bus1=13_46 Bus2=13_48 phases=3 Linecode=4c_70 Length=0.1118 Units=m
New Line.LINE13_48 Bus1=13_47 Bus2=13_49 phases=3 Linecode=4c_70 Length=0.32911 Units=m
New Line.LINE13_49 Bus1=13_48 Bus2=13_50 phases=3 Linecode=4c_70 Length=0.08043 Units=m
New Line.LINE13_50 Bus1=13_49 Bus2=13_51 phases=3 Linecode=4c_70 Length=1.7571 Units=m
New Line.LINE13_51 Bus1=13_50 Bus2=13_52 phases=3 Linecode=4c_70 Length=0.12846 Units=m
New Line.LINE13_52 Bus1=13_51 Bus2=13_53 phases=3 Linecode=4c_70 Length=1.8499 Units=m
New Line.LINE13_53 Bus1=13_52 Bus2=13_54 phases=3 Linecode=4c_70 Length=0.21619 Units=m
New Line.LINE13_54 Bus1=13_53 Bus2=13_55 phases=3 Linecode=4c_70 Length=0.54235 Units=m
New Line.LINE13_55 Bus1=13_54 Bus2=13_56 phases=3 Linecode=4c_70 Length=0.14087 Units=m
New Line.LINE13_56 Bus1=13_55 Bus2=13_57 phases=3 Linecode=4c_70 Length=0.97806 Units=m
New Line.LINE13_57 Bus1=13_56 Bus2=13_58 phases=3 Linecode=4c_70 Length=0.22365 Units=m
New Line.LINE13_58 Bus1=13_57 Bus2=13_59 phases=3 Linecode=4_PC Length=0.14617 Units=m
New Line.LINE13_59 Bus1=13_57 Bus2=13_60 phases=3 Linecode=4c_70 Length=1.3036 Units=m
New Line.LINE13_60 Bus1=13_58 Bus2=13_61 phases=3 Linecode=4c_70 Length=0.28969 Units=m
New Line.LINE13_61 Bus1=13_59 Bus2=13_62 phases=3 Linecode=4_PC Length=0.097309 Units=m
New Line.LINE13_62 Bus1=13_60 Bus2=13_63 phases=3 Linecode=4c_70 Length=1.4443 Units=m
New Line.LINE13_63 Bus1=13_62 Bus2=13_64 phases=3 Linecode=4_PC Length=0.08262 Units=m
New Line.LINE13_64 Bus1=13_63 Bus2=13_65 phases=3 Linecode=4c_70 Length=2.4976 Units=m
New Line.LINE13_65 Bus1=13_64 Bus2=13_66 phases=3 Linecode=4_PC Length=0.075073 Units=m
New Line.LINE13_66 Bus1=13_65 Bus2=13_67 phases=3 Linecode=4c_.35 Length=4.8257 Units=m
New Line.LINE13_67 Bus1=13_65 Bus2=13_68 phases=3 Linecode=4c_70 Length=6.657 Units=m
New Line.LINE13_68 Bus1=13_66 Bus2=13_69 phases=3 Linecode=4_PC Length=1.1218 Units=m
New Line.LINE13_69 Bus1=13_67 Bus2=13_70 phases=3 Linecode=4c_.35 Length=0.45322 Units=m
New Line.LINE13_70 Bus1=13_68 Bus2=13_71 phases=3 Linecode=4c_70 Length=9.8833 Units=m
New Line.LINE13_71 Bus1=13_70 Bus2=13_72 phases=3 Linecode=4c_.35 Length=0.38203 Units=m
New Line.LINE13_72 Bus1=13_71 Bus2=13_73 phases=3 Linecode=4c_70 Length=3.0273 Units=m
New Line.LINE13_73 Bus1=13_72 Bus2=13_74 phases=3 Linecode=4c_.35 Length=0.30892 Units=m
New Line.LINE13_74 Bus1=13_73 Bus2=13_75 phases=3 Linecode=2c_16 Length=3.6078 Units=m
New Line.LINE13_75 Bus1=13_73 Bus2=13_76 phases=3 Linecode=4c_70 Length=4.5939 Units=m
New Line.LINE13_76 Bus1=13_74 Bus2=13_77 phases=3 Linecode=4c_.35 Length=1.2345 Units=m
New Line.LINE13_77 Bus1=13_75 Bus2=13_78 phases=3 Linecode=2c_16 Length=0.38288 Units=m
New Line.LINE13_78 Bus1=13_76 Bus2=13_79 phases=3 Linecode=2c_16 Length=10.9316 Units=m
New Line.LINE13_79 Bus1=13_76 Bus2=13_80 phases=3 Linecode=4c_70 Length=1.0987 Units=m
New Line.LINE13_80 Bus1=13_77 Bus2=13_81 phases=3 Linecode=2c_16 Length=5.5378 Units=m
New Line.LINE13_81 Bus1=13_77 Bus2=13_82 phases=3 Linecode=4c_.35 Length=0.2601 Units=m
New Line.LINE13_82 Bus1=13_78 Bus2=13_83 phases=3 Linecode=2c_16 Length=0.61983 Units=m
New Line.LINE13_83 Bus1=13_79 Bus2=13_84 phases=3 Linecode=2c_16 Length=4.4728 Units=m
New Line.LINE13_84 Bus1=13_80 Bus2=13_85 phases=3 Linecode=4c_70 Length=4.5962 Units=m
New Line.LINE13_85 Bus1=13_81 Bus2=13_86 phases=3 Linecode=2c_16 Length=0.24175 Units=m
New Line.LINE13_86 Bus1=13_82 Bus2=13_87 phases=3 Linecode=4c_.35 Length=0.70117 Units=m
New Line.LINE13_87 Bus1=13_83 Bus2=13_88 phases=3 Linecode=2c_16 Length=0.4223 Units=m
New Line.LINE13_88 Bus1=13_85 Bus2=13_89 phases=3 Linecode=4c_70 Length=4.599 Units=m
New Line.LINE13_89 Bus1=13_86 Bus2=13_90 phases=3 Linecode=2c_16 Length=0.20227 Units=m
New Line.LINE13_90 Bus1=13_87 Bus2=13_91 phases=3 Linecode=4c_.35 Length=0.47467 Units=m
New Line.LINE13_91 Bus1=13_88 Bus2=13_92 phases=3 Linecode=2c_16 Length=0.30399 Units=m
New Line.LINE13_92 Bus1=13_89 Bus2=13_93 phases=3 Linecode=4c_.06 Length=2.2794 Units=m
New Line.LINE13_93 Bus1=13_90 Bus2=13_94 phases=3 Linecode=2c_16 Length=0.16999 Units=m
New Line.LINE13_94 Bus1=13_91 Bus2=13_95 phases=3 Linecode=4c_.35 Length=0.18246 Units=m
New Line.LINE13_95 Bus1=13_92 Bus2=13_96 phases=3 Linecode=2c_16 Length=0.49935 Units=m
New Line.LINE13_96 Bus1=13_93 Bus2=13_97 phases=3 Linecode=2c_16 Length=9.0916 Units=m
New Line.LINE13_97 Bus1=13_93 Bus2=13_98 phases=3 Linecode=4c_.06 Length=3.3194 Units=m
New Line.LINE13_98 Bus1=13_94 Bus2=13_99 phases=3 Linecode=2c_16 Length=0.19673 Units=m
New Line.LINE13_99 Bus1=13_95 Bus2=13_100 phases=3 Linecode=4c_.35 Length=4.5235 Units=m
New Line.LINE13_100 Bus1=13_96 Bus2=13_101 phases=3 Linecode=2c_16 Length=0.86939 Units=m
New Line.LINE13_101 Bus1=13_97 Bus2=13_102 phases=3 Linecode=2c_16 Length=1.0341 Units=m
New Line.LINE13_102 Bus1=13_97 Bus2=13_103 phases=3 Linecode=2c_16 Length=1.8466 Units=m
New Line.LINE13_103 Bus1=13_98 Bus2=13_104 phases=3 Linecode=4c_.06 Length=1.8072 Units=m
New Line.LINE13_104 Bus1=13_99 Bus2=13_105 phases=3 Linecode=2c_16 Length=0.44001 Units=m
New Line.LINE13_105 Bus1=13_100 Bus2=13_106 phases=3 Linecode=4c_.35 Length=3.4955 Units=m
New Line.LINE13_106 Bus1=13_101 Bus2=13_107 phases=3 Linecode=2c_16 Length=0.80297 Units=m
New Line.LINE13_107 Bus1=13_102 Bus2=13_108 phases=3 Linecode=2c_16 Length=0.3283 Units=m
New Line.LINE13_108 Bus1=13_103 Bus2=13_109 phases=3 Linecode=2c_16 Length=5.1351 Units=m
New Line.LINE13_109 Bus1=13_104 Bus2=13_110 phases=3 Linecode=4c_.06 Length=6.1256 Units=m
New Line.LINE13_110 Bus1=13_105 Bus2=13_111 phases=3 Linecode=2c_16 Length=1.1598 Units=m
New Line.LINE13_111 Bus1=13_106 Bus2=13_112 phases=3 Linecode=2c_16 Length=1.8767 Units=m
New Line.LINE13_112 Bus1=13_106 Bus2=13_113 phases=3 Linecode=4c_.35 Length=8.3901 Units=m
New Line.LINE13_113 Bus1=13_107 Bus2=13_114 phases=3 Linecode=2c_16 Length=0.5297 Units=m
New Line.LINE13_114 Bus1=13_108 Bus2=13_115 phases=3 Linecode=2c_16 Length=0.194 Units=m
New Line.LINE13_115 Bus1=13_110 Bus2=13_116 phases=3 Linecode=4c_.06 Length=1.0428 Units=m
New Line.LINE13_116 Bus1=13_111 Bus2=13_117 phases=3 Linecode=2c_16 Length=5.5869 Units=m
New Line.LINE13_117 Bus1=13_111 Bus2=13_118 phases=3 Linecode=2c_16 Length=5.5869 Units=m
New Line.LINE13_118 Bus1=13_112 Bus2=13_119 phases=3 Linecode=2c_16 Length=3.0406 Units=m
New Line.LINE13_119 Bus1=13_113 Bus2=13_120 phases=3 Linecode=4c_.35 Length=3.7815 Units=m
New Line.LINE13_120 Bus1=13_114 Bus2=13_121 phases=3 Linecode=2c_16 Length=0.43398 Units=m
New Line.LINE13_121 Bus1=13_115 Bus2=13_122 phases=3 Linecode=2c_16 Length=0.20333 Units=m
New Line.LINE13_122 Bus1=13_116 Bus2=13_123 phases=3 Linecode=4c_.06 Length=4.1133 Units=m
New Line.LINE13_123 Bus1=13_116 Bus2=13_124 phases=3 Linecode=4c_.06 Length=0.93963 Units=m
New Line.LINE13_124 Bus1=13_120 Bus2=13_125 phases=3 Linecode=2c_16 Length=1.7466 Units=m
New Line.LINE13_125 Bus1=13_120 Bus2=13_126 phases=3 Linecode=4c_.35 Length=2.1187 Units=m
New Line.LINE13_126 Bus1=13_121 Bus2=13_127 phases=3 Linecode=2c_16 Length=0.36134 Units=m
New Line.LINE13_127 Bus1=13_122 Bus2=13_128 phases=3 Linecode=2c_16 Length=0.29033 Units=m
New Line.LINE13_128 Bus1=13_123 Bus2=13_129 phases=3 Linecode=2c_16 Length=3.1856 Units=m
New Line.LINE13_129 Bus1=13_123 Bus2=13_130 phases=3 Linecode=4c_.06 Length=2.3107 Units=m
New Line.LINE13_130 Bus1=13_124 Bus2=13_131 phases=3 Linecode=4c_.06 Length=0.249 Units=m
New Line.LINE13_131 Bus1=13_125 Bus2=13_132 phases=3 Linecode=2c_16 Length=5.0719 Units=m
New Line.LINE13_132 Bus1=13_126 Bus2=13_133 phases=3 Linecode=4c_.35 Length=0.35636 Units=m
New Line.LINE13_133 Bus1=13_127 Bus2=13_134 phases=3 Linecode=2c_16 Length=0.391 Units=m
New Line.LINE13_134 Bus1=13_128 Bus2=13_135 phases=3 Linecode=2c_16 Length=0.18425 Units=m
New Line.LINE13_135 Bus1=13_129 Bus2=13_136 phases=3 Linecode=2c_16 Length=0.27471 Units=m
New Line.LINE13_136 Bus1=13_130 Bus2=13_137 phases=3 Linecode=4c_.06 Length=1.2577 Units=m
New Line.LINE13_137 Bus1=13_131 Bus2=13_138 phases=3 Linecode=4c_.06 Length=0.22707 Units=m
New Line.LINE13_138 Bus1=13_133 Bus2=13_139 phases=3 Linecode=4c_.35 Length=0.421 Units=m
New Line.LINE13_139 Bus1=13_134 Bus2=13_140 phases=3 Linecode=2c_16 Length=0.40632 Units=m
New Line.LINE13_140 Bus1=13_135 Bus2=13_141 phases=3 Linecode=2c_16 Length=0.9401 Units=m
New Line.LINE13_141 Bus1=13_136 Bus2=13_142 phases=3 Linecode=2c_16 Length=0.294 Units=m
New Line.LINE13_142 Bus1=13_137 Bus2=13_143 phases=3 Linecode=2c_16 Length=8.681 Units=m
New Line.LINE13_143 Bus1=13_137 Bus2=13_144 phases=3 Linecode=4c_.06 Length=1.0118 Units=m
New Line.LINE13_144 Bus1=13_138 Bus2=13_145 phases=3 Linecode=4c_.06 Length=0.21338 Units=m
New Line.LINE13_145 Bus1=13_139 Bus2=13_146 phases=3 Linecode=25_SAC_XC Length=0.51328 Units=m
New Line.LINE13_146 Bus1=13_139 Bus2=13_147 phases=3 Linecode=4c_.35 Length=0.27056 Units=m
New Line.LINE13_147 Bus1=13_140 Bus2=13_148 phases=3 Linecode=2c_16 Length=2.592 Units=m
New Line.LINE13_148 Bus1=13_141 Bus2=13_149 phases=3 Linecode=2c_16 Length=5.208 Units=m
New Line.LINE13_149 Bus1=13_142 Bus2=13_150 phases=3 Linecode=2c_16 Length=0.39096 Units=m
New Line.LINE13_150 Bus1=13_143 Bus2=13_151 phases=3 Linecode=2c_16 Length=5.4297 Units=m
New Line.LINE13_151 Bus1=13_144 Bus2=13_152 phases=3 Linecode=4c_.06 Length=3.548 Units=m
New Line.LINE13_152 Bus1=13_145 Bus2=13_153 phases=3 Linecode=4c_.06 Length=0.31961 Units=m
New Line.LINE13_153 Bus1=13_146 Bus2=13_154 phases=3 Linecode=25_SAC_XC Length=0.322 Units=m
New Line.LINE13_154 Bus1=13_147 Bus2=13_155 phases=3 Linecode=4c_.35 Length=0.22919 Units=m
New Line.LINE13_155 Bus1=13_148 Bus2=13_156 phases=3 Linecode=2c_16 Length=0.38663 Units=m
New Line.LINE13_156 Bus1=13_150 Bus2=13_157 phases=3 Linecode=2c_16 Length=6.1104 Units=m
New Line.LINE13_157 Bus1=13_152 Bus2=13_158 phases=3 Linecode=4c_.06 Length=3.5891 Units=m
New Line.LINE13_158 Bus1=13_153 Bus2=13_159 phases=3 Linecode=4c_.06 Length=0.35419 Units=m
New Line.LINE13_159 Bus1=13_154 Bus2=13_160 phases=3 Linecode=25_SAC_XC Length=0.37972 Units=m
New Line.LINE13_160 Bus1=13_155 Bus2=13_161 phases=3 Linecode=4c_.35 Length=0.19777 Units=m
New Line.LINE13_161 Bus1=13_156 Bus2=13_162 phases=3 Linecode=2c_16 Length=0.15033 Units=m
New Line.LINE13_162 Bus1=13_157 Bus2=13_163 phases=3 Linecode=2c_16 Length=4.2852 Units=m
New Line.LINE13_163 Bus1=13_158 Bus2=13_164 phases=3 Linecode=4c_.06 Length=3.8331 Units=m
New Line.LINE13_164 Bus1=13_159 Bus2=13_165 phases=3 Linecode=4c_.06 Length=0.351 Units=m
New Line.LINE13_165 Bus1=13_160 Bus2=13_166 phases=3 Linecode=25_SAC_XC Length=0.52274 Units=m
New Line.LINE13_166 Bus1=13_161 Bus2=13_167 phases=3 Linecode=4c_.35 Length=0.23764 Units=m
New Line.LINE13_167 Bus1=13_162 Bus2=13_168 phases=3 Linecode=2c_16 Length=0.23223 Units=m
New Line.LINE13_168 Bus1=13_164 Bus2=13_169 phases=3 Linecode=4c_.06 Length=2.7218 Units=m
New Line.LINE13_169 Bus1=13_165 Bus2=13_170 phases=3 Linecode=4c_.06 Length=0.43135 Units=m
New Line.LINE13_170 Bus1=13_166 Bus2=13_171 phases=3 Linecode=25_SAC_XC Length=0.48124 Units=m
New Line.LINE13_171 Bus1=13_167 Bus2=13_172 phases=3 Linecode=4c_.35 Length=0.4172 Units=m
New Line.LINE13_172 Bus1=13_168 Bus2=13_173 phases=3 Linecode=2c_16 Length=0.146 Units=m
New Line.LINE13_173 Bus1=13_169 Bus2=13_174 phases=3 Linecode=4c_.06 Length=3.5444 Units=m
New Line.LINE13_174 Bus1=13_170 Bus2=13_175 phases=3 Linecode=4c_.06 Length=0.42962 Units=m
New Line.LINE13_175 Bus1=13_171 Bus2=13_176 phases=3 Linecode=25_SAC_XC Length=0.45813 Units=m
New Line.LINE13_176 Bus1=13_172 Bus2=13_177 phases=3 Linecode=4c_.35 Length=0.67225 Units=m
New Line.LINE13_177 Bus1=13_173 Bus2=13_178 phases=3 Linecode=2c_16 Length=0.179 Units=m
New Line.LINE13_178 Bus1=13_174 Bus2=13_179 phases=3 Linecode=4c_.06 Length=2.0348 Units=m
New Line.LINE13_179 Bus1=13_175 Bus2=13_180 phases=3 Linecode=4c_.06 Length=0.31783 Units=m
New Line.LINE13_180 Bus1=13_176 Bus2=13_181 phases=3 Linecode=25_SAC_XC Length=0.54571 Units=m
New Line.LINE13_181 Bus1=13_177 Bus2=13_182 phases=3 Linecode=2c_.0225 Length=1.9884 Units=m
New Line.LINE13_182 Bus1=13_177 Bus2=13_183 phases=3 Linecode=4c_.35 Length=0.44489 Units=m
New Line.LINE13_183 Bus1=13_178 Bus2=13_184 phases=3 Linecode=2c_16 Length=0.60416 Units=m
New Line.LINE13_184 Bus1=13_179 Bus2=13_185 phases=3 Linecode=4c_.06 Length=2.7279 Units=m
New Line.LINE13_185 Bus1=13_180 Bus2=13_186 phases=3 Linecode=4c_.06 Length=0.52893 Units=m
New Line.LINE13_186 Bus1=13_181 Bus2=13_187 phases=3 Linecode=25_SAC_XC Length=0.45697 Units=m
New Line.LINE13_187 Bus1=13_182 Bus2=13_188 phases=3 Linecode=2c_.0225 Length=6.2441 Units=m
New Line.LINE13_188 Bus1=13_183 Bus2=13_189 phases=3 Linecode=4c_.35 Length=1.8242 Units=m
New Line.LINE13_189 Bus1=13_184 Bus2=13_190 phases=3 Linecode=2c_16 Length=4.1043 Units=m
New Line.LINE13_190 Bus1=13_185 Bus2=13_191 phases=3 Linecode=4c_.06 Length=1.9442 Units=m
New Line.LINE13_191 Bus1=13_186 Bus2=13_192 phases=3 Linecode=4c_.06 Length=0.30783 Units=m
New Line.LINE13_192 Bus1=13_187 Bus2=13_193 phases=3 Linecode=25_SAC_XC Length=0.35461 Units=m
New Line.LINE13_193 Bus1=13_189 Bus2=13_194 phases=3 Linecode=4c_.35 Length=6.315 Units=m
New Line.LINE13_194 Bus1=13_191 Bus2=13_195 phases=3 Linecode=4c_.06 Length=3.1161 Units=m
New Line.LINE13_195 Bus1=13_191 Bus2=13_196 phases=3 Linecode=2c_16 Length=13.0753 Units=m
New Line.LINE13_196 Bus1=13_192 Bus2=13_197 phases=3 Linecode=4c_.06 Length=0.47942 Units=m
New Line.LINE13_197 Bus1=13_193 Bus2=13_198 phases=3 Linecode=25_SAC_XC Length=0.69095 Units=m
New Line.LINE13_198 Bus1=13_194 Bus2=13_199 phases=3 Linecode=4c_.35 Length=1.181 Units=m
New Line.LINE13_199 Bus1=13_195 Bus2=13_200 phases=3 Linecode=4c_.06 Length=5.7962 Units=m
New Line.LINE13_200 Bus1=13_196 Bus2=13_201 phases=3 Linecode=2c_25 Length=3.642 Units=m
New Line.LINE13_201 Bus1=13_196 Bus2=13_202 phases=3 Linecode=2c_16 Length=0.14395 Units=m
New Line.LINE13_202 Bus1=13_198 Bus2=13_203 phases=3 Linecode=25_SAC_XC Length=0.74406 Units=m
New Line.LINE13_203 Bus1=13_199 Bus2=13_204 phases=3 Linecode=25_SAC_XC Length=7.2987 Units=m
New Line.LINE13_204 Bus1=13_199 Bus2=13_205 phases=3 Linecode=4c_.35 Length=7.5601 Units=m
New Line.LINE13_205 Bus1=13_200 Bus2=13_206 phases=3 Linecode=4c_.06 Length=1.2814 Units=m
New Line.LINE13_206 Bus1=13_201 Bus2=13_207 phases=3 Linecode=2c_25 Length=1.4844 Units=m
New Line.LINE13_207 Bus1=13_202 Bus2=13_208 phases=3 Linecode=2c_16 Length=0.164 Units=m
New Line.LINE13_208 Bus1=13_203 Bus2=13_209 phases=3 Linecode=25_SAC_XC Length=2.6236 Units=m
New Line.LINE13_209 Bus1=13_203 Bus2=13_210 phases=3 Linecode=25_SAC_XC Length=2.6236 Units=m
New Line.LINE13_210 Bus1=13_205 Bus2=13_211 phases=3 Linecode=2c_.0225 Length=1.1442 Units=m
New Line.LINE13_211 Bus1=13_206 Bus2=13_212 phases=3 Linecode=4c_.06 Length=0.98654 Units=m
New Line.LINE13_212 Bus1=13_207 Bus2=13_213 phases=3 Linecode=2c_25 Length=0.41 Units=m
New Line.LINE13_213 Bus1=13_208 Bus2=13_214 phases=3 Linecode=2c_16 Length=0.264 Units=m
New Line.LINE13_214 Bus1=13_211 Bus2=13_215 phases=3 Linecode=2c_.0225 Length=0.23177 Units=m
New Line.LINE13_215 Bus1=13_212 Bus2=13_216 phases=3 Linecode=4c_.06 Length=1.0853 Units=m
New Line.LINE13_216 Bus1=13_213 Bus2=13_217 phases=3 Linecode=2c_25 Length=0.26025 Units=m
New Line.LINE13_217 Bus1=13_214 Bus2=13_218 phases=3 Linecode=2c_16 Length=0.15255 Units=m
New Line.LINE13_218 Bus1=13_215 Bus2=13_219 phases=3 Linecode=2c_.0225 Length=0.19331 Units=m
New Line.LINE13_219 Bus1=13_216 Bus2=13_220 phases=3 Linecode=4c_.06 Length=0.83787 Units=m
New Line.LINE13_220 Bus1=13_217 Bus2=13_221 phases=3 Linecode=2c_25 Length=0.338 Units=m
New Line.LINE13_221 Bus1=13_218 Bus2=13_222 phases=3 Linecode=2c_16 Length=0.20848 Units=m
New Line.LINE13_222 Bus1=13_219 Bus2=13_223 phases=3 Linecode=2c_.0225 Length=0.24015 Units=m
New Line.LINE13_223 Bus1=13_220 Bus2=13_224 phases=3 Linecode=4c_.06 Length=0.93904 Units=m
New Line.LINE13_224 Bus1=13_221 Bus2=13_225 phases=3 Linecode=2c_25 Length=0.29387 Units=m
New Line.LINE13_225 Bus1=13_222 Bus2=13_226 phases=3 Linecode=2c_16 Length=2.4033 Units=m
New Line.LINE13_226 Bus1=13_223 Bus2=13_227 phases=3 Linecode=2c_.0225 Length=0.34312 Units=m
New Line.LINE13_227 Bus1=13_224 Bus2=13_228 phases=3 Linecode=4c_.06 Length=0.88451 Units=m
New Line.LINE13_228 Bus1=13_225 Bus2=13_229 phases=3 Linecode=2c_25 Length=0.55282 Units=m
New Line.LINE13_229 Bus1=13_226 Bus2=13_230 phases=3 Linecode=2c_16 Length=0.2081 Units=m
New Line.LINE13_230 Bus1=13_227 Bus2=13_231 phases=3 Linecode=2c_.0225 Length=1.5534 Units=m
New Line.LINE13_231 Bus1=13_228 Bus2=13_232 phases=3 Linecode=4c_.06 Length=0.78941 Units=m
New Line.LINE13_232 Bus1=13_229 Bus2=13_233 phases=3 Linecode=2c_25 Length=1.104 Units=m
New Line.LINE13_233 Bus1=13_230 Bus2=13_234 phases=3 Linecode=2c_16 Length=0.10084 Units=m
New Line.LINE13_234 Bus1=13_231 Bus2=13_235 phases=3 Linecode=2c_.0225 Length=0.25258 Units=m
New Line.LINE13_235 Bus1=13_232 Bus2=13_236 phases=3 Linecode=4c_.06 Length=0.6515 Units=m
New Line.LINE13_236 Bus1=13_233 Bus2=13_237 phases=3 Linecode=2c_25 Length=2.5957 Units=m
New Line.LINE13_237 Bus1=13_233 Bus2=13_238 phases=3 Linecode=2c_25 Length=2.5957 Units=m
New Line.LINE13_238 Bus1=13_234 Bus2=13_239 phases=3 Linecode=2c_16 Length=0.126 Units=m
New Line.LINE13_239 Bus1=13_235 Bus2=13_240 phases=3 Linecode=2c_.0225 Length=0.15263 Units=m
New Line.LINE13_240 Bus1=13_236 Bus2=13_241 phases=3 Linecode=4c_.06 Length=0.864 Units=m
New Line.LINE13_241 Bus1=13_239 Bus2=13_242 phases=3 Linecode=2c_16 Length=0.073573 Units=m
New Line.LINE13_242 Bus1=13_240 Bus2=13_243 phases=3 Linecode=2c_.0225 Length=0.16981 Units=m
New Line.LINE13_243 Bus1=13_241 Bus2=13_244 phases=3 Linecode=4c_.06 Length=0.55701 Units=m
New Line.LINE13_244 Bus1=13_242 Bus2=13_245 phases=3 Linecode=2c_16 Length=0.081056 Units=m
New Line.LINE13_245 Bus1=13_243 Bus2=13_246 phases=3 Linecode=2c_.0225 Length=1.0526 Units=m
New Line.LINE13_246 Bus1=13_244 Bus2=13_247 phases=3 Linecode=4c_.06 Length=1.0711 Units=m
New Line.LINE13_247 Bus1=13_245 Bus2=13_248 phases=3 Linecode=2c_16 Length=0.3012 Units=m
New Line.LINE13_248 Bus1=13_246 Bus2=13_249 phases=3 Linecode=2c_.0225 Length=6.0071 Units=m
New Line.LINE13_249 Bus1=13_246 Bus2=13_250 phases=3 Linecode=2c_.0225 Length=6.0071 Units=m
New Line.LINE13_250 Bus1=13_247 Bus2=13_251 phases=3 Linecode=4c_.06 Length=1.131 Units=m
New Line.LINE13_251 Bus1=13_248 Bus2=13_252 phases=3 Linecode=2c_16 Length=0.43738 Units=m
New Line.LINE13_252 Bus1=13_251 Bus2=13_253 phases=3 Linecode=4c_.06 Length=3.7745 Units=m
New Line.LINE13_253 Bus1=13_251 Bus2=13_254 phases=3 Linecode=4c_.06 Length=0.19454 Units=m
New Line.LINE13_254 Bus1=13_252 Bus2=13_255 phases=3 Linecode=2c_16 Length=5.332 Units=m
New Line.LINE13_255 Bus1=13_253 Bus2=13_256 phases=3 Linecode=4c_.06 Length=15.4543 Units=m
New Line.LINE13_256 Bus1=13_254 Bus2=13_257 phases=3 Linecode=4c_.06 Length=0.212 Units=m
New Line.LINE13_257 Bus1=13_256 Bus2=13_258 phases=3 Linecode=2c_16 Length=7.4719 Units=m
New Line.LINE13_258 Bus1=13_256 Bus2=13_259 phases=3 Linecode=4c_.06 Length=5.6789 Units=m
New Line.LINE13_259 Bus1=13_257 Bus2=13_260 phases=3 Linecode=4c_.06 Length=0.22996 Units=m
New Line.LINE13_260 Bus1=13_258 Bus2=13_261 phases=3 Linecode=2c_16 Length=5.4827 Units=m
New Line.LINE13_261 Bus1=13_259 Bus2=13_262 phases=3 Linecode=4c_.06 Length=9.0077 Units=m
New Line.LINE13_262 Bus1=13_260 Bus2=13_263 phases=3 Linecode=4c_.06 Length=0.208 Units=m
New Line.LINE13_263 Bus1=13_262 Bus2=13_264 phases=3 Linecode=2c_16 Length=3.8647 Units=m
New Line.LINE13_264 Bus1=13_262 Bus2=13_265 phases=3 Linecode=4c_.06 Length=5.3086 Units=m
New Line.LINE13_265 Bus1=13_263 Bus2=13_266 phases=3 Linecode=4c_.06 Length=0.208 Units=m
New Line.LINE13_266 Bus1=13_264 Bus2=13_267 phases=3 Linecode=2c_16 Length=0.53871 Units=m
New Line.LINE13_267 Bus1=13_265 Bus2=13_268 phases=3 Linecode=4c_.06 Length=0.9671 Units=m
New Line.LINE13_268 Bus1=13_266 Bus2=13_269 phases=3 Linecode=4c_.06 Length=0.32285 Units=m
New Line.LINE13_269 Bus1=13_267 Bus2=13_270 phases=3 Linecode=2c_16 Length=0.17688 Units=m
New Line.LINE13_270 Bus1=13_268 Bus2=13_271 phases=3 Linecode=4c_.06 Length=2.1998 Units=m
New Line.LINE13_271 Bus1=13_270 Bus2=13_272 phases=3 Linecode=2c_16 Length=0.21609 Units=m
New Line.LINE13_272 Bus1=13_271 Bus2=13_273 phases=3 Linecode=4c_.06 Length=1.329 Units=m
New Line.LINE13_273 Bus1=13_272 Bus2=13_274 phases=3 Linecode=2c_16 Length=0.28321 Units=m
New Line.LINE13_274 Bus1=13_273 Bus2=13_275 phases=3 Linecode=4c_.06 Length=1.1451 Units=m
New Line.LINE13_275 Bus1=13_274 Bus2=13_276 phases=3 Linecode=2c_16 Length=0.36353 Units=m
New Line.LINE13_276 Bus1=13_275 Bus2=13_277 phases=3 Linecode=4c_.06 Length=0.48514 Units=m
New Line.LINE13_277 Bus1=13_276 Bus2=13_278 phases=3 Linecode=2c_16 Length=0.30974 Units=m
New Line.LINE13_278 Bus1=13_276 Bus2=13_279 phases=3 Linecode=2c_16 Length=0.51604 Units=m
New Line.LINE13_279 Bus1=13_277 Bus2=13_280 phases=3 Linecode=4c_.06 Length=1.8074 Units=m
New Line.LINE13_280 Bus1=13_278 Bus2=13_281 phases=3 Linecode=2c_16 Length=0.204 Units=m
New Line.LINE13_281 Bus1=13_279 Bus2=13_282 phases=3 Linecode=2c_16 Length=0.20383 Units=m
New Line.LINE13_282 Bus1=13_280 Bus2=13_283 phases=3 Linecode=4c_.06 Length=2.5944 Units=m
New Line.LINE13_283 Bus1=13_280 Bus2=13_284 phases=3 Linecode=2c_.0225 Length=7.0683 Units=m
New Line.LINE13_284 Bus1=13_281 Bus2=13_285 phases=3 Linecode=2c_16 Length=0.15484 Units=m
New Line.LINE13_285 Bus1=13_282 Bus2=13_286 phases=3 Linecode=2c_16 Length=0.24402 Units=m
New Line.LINE13_286 Bus1=13_283 Bus2=13_287 phases=3 Linecode=4c_.06 Length=0.34708 Units=m
New Line.LINE13_287 Bus1=13_284 Bus2=13_288 phases=3 Linecode=2c_.0225 Length=5.3724 Units=m
New Line.LINE13_288 Bus1=13_285 Bus2=13_289 phases=3 Linecode=2c_16 Length=0.14058 Units=m
New Line.LINE13_289 Bus1=13_286 Bus2=13_290 phases=3 Linecode=2c_16 Length=0.30887 Units=m
New Line.LINE13_290 Bus1=13_287 Bus2=13_291 phases=3 Linecode=4c_.06 Length=5.1185 Units=m
New Line.LINE13_291 Bus1=13_289 Bus2=13_292 phases=3 Linecode=2c_16 Length=0.23269 Units=m
New Line.LINE13_292 Bus1=13_290 Bus2=13_293 phases=3 Linecode=2c_16 Length=0.48244 Units=m
New Line.LINE13_293 Bus1=13_291 Bus2=13_294 phases=3 Linecode=4c_.06 Length=3.893 Units=m
New Line.LINE13_294 Bus1=13_292 Bus2=13_295 phases=3 Linecode=2c_16 Length=0.24387 Units=m
New Line.LINE13_295 Bus1=13_293 Bus2=13_296 phases=3 Linecode=2c_16 Length=0.36497 Units=m
New Line.LINE13_296 Bus1=13_294 Bus2=13_297 phases=3 Linecode=4c_.06 Length=2.7409 Units=m
New Line.LINE13_297 Bus1=13_295 Bus2=13_298 phases=3 Linecode=2c_16 Length=0.215 Units=m
New Line.LINE13_298 Bus1=13_296 Bus2=13_299 phases=3 Linecode=2c_16 Length=4.3857 Units=m
New Line.LINE13_299 Bus1=13_297 Bus2=13_300 phases=3 Linecode=4c_.06 Length=3.4905 Units=m
New Line.LINE13_300 Bus1=13_298 Bus2=13_301 phases=3 Linecode=2c_16 Length=0.215 Units=m
New Line.LINE13_301 Bus1=13_300 Bus2=13_302 phases=3 Linecode=4c_.06 Length=1.2388 Units=m
New Line.LINE13_302 Bus1=13_300 Bus2=13_303 phases=3 Linecode=4c_.06 Length=0.80177 Units=m
New Line.LINE13_303 Bus1=13_301 Bus2=13_304 phases=3 Linecode=2c_16 Length=0.97816 Units=m
New Line.LINE13_304 Bus1=13_302 Bus2=13_305 phases=3 Linecode=4c_.06 Length=0.33464 Units=m
New Line.LINE13_305 Bus1=13_303 Bus2=13_306 phases=3 Linecode=4c_.06 Length=4.9008 Units=m
New Line.LINE13_306 Bus1=13_304 Bus2=13_307 phases=3 Linecode=2c_16 Length=4.8951 Units=m
New Line.LINE13_307 Bus1=13_305 Bus2=13_308 phases=3 Linecode=4c_.06 Length=0.28262 Units=m
New Line.LINE13_308 Bus1=13_306 Bus2=13_309 phases=3 Linecode=4c_.06 Length=0.59312 Units=m
New Line.LINE13_309 Bus1=13_308 Bus2=13_310 phases=3 Linecode=4c_.06 Length=0.31617 Units=m
New Line.LINE13_310 Bus1=13_309 Bus2=13_311 phases=3 Linecode=4_PSC Length=19.8903 Units=m
New Line.LINE13_311 Bus1=13_309 Bus2=13_312 phases=3 Linecode=2c_.007 Length=2.491 Units=m
New Line.LINE13_312 Bus1=13_310 Bus2=13_313 phases=3 Linecode=4c_.06 Length=0.391 Units=m
New Line.LINE13_313 Bus1=13_311 Bus2=13_314 phases=3 Linecode=4_PSC Length=0.12947 Units=m
New Line.LINE13_314 Bus1=13_311 Bus2=13_315 phases=3 Linecode=4_PSC Length=0.2505 Units=m
New Line.LINE13_315 Bus1=13_312 Bus2=13_316 phases=3 Linecode=2c_.007 Length=12.5592 Units=m
New Line.LINE13_316 Bus1=13_313 Bus2=13_317 phases=3 Linecode=4c_.06 Length=0.51149 Units=m
New Line.LINE13_317 Bus1=13_314 Bus2=13_318 phases=3 Linecode=4_PSC Length=0.13885 Units=m
New Line.LINE13_318 Bus1=13_315 Bus2=13_319 phases=3 Linecode=4_PSC Length=0.31123 Units=m
New Line.LINE13_319 Bus1=13_316 Bus2=13_320 phases=3 Linecode=2c_.007 Length=0.18062 Units=m
New Line.LINE13_320 Bus1=13_317 Bus2=13_321 phases=3 Linecode=4c_.06 Length=0.49553 Units=m
New Line.LINE13_321 Bus1=13_318 Bus2=13_322 phases=3 Linecode=4_PSC Length=0.1863 Units=m
New Line.LINE13_322 Bus1=13_319 Bus2=13_323 phases=3 Linecode=4_PSC Length=0.24309 Units=m
New Line.LINE13_323 Bus1=13_320 Bus2=13_324 phases=3 Linecode=2c_.007 Length=0.1566 Units=m
New Line.LINE13_324 Bus1=13_321 Bus2=13_325 phases=3 Linecode=4c_.06 Length=12.8126 Units=m
New Line.LINE13_325 Bus1=13_322 Bus2=13_326 phases=3 Linecode=4_PSC Length=0.21561 Units=m
New Line.LINE13_326 Bus1=13_323 Bus2=13_327 phases=3 Linecode=4_PSC Length=0.334 Units=m
New Line.LINE13_327 Bus1=13_324 Bus2=13_328 phases=3 Linecode=2c_.007 Length=0.19272 Units=m
New Line.LINE13_328 Bus1=13_325 Bus2=13_329 phases=3 Linecode=4c_.06 Length=11.062 Units=m
New Line.LINE13_329 Bus1=13_325 Bus2=13_330 phases=3 Linecode=2c_.04 Length=10.8747 Units=m
New Line.LINE13_330 Bus1=13_326 Bus2=13_331 phases=3 Linecode=4_PSC Length=8.4318 Units=m
New Line.LINE13_331 Bus1=13_327 Bus2=13_332 phases=3 Linecode=4_PSC Length=0.31285 Units=m
New Line.LINE13_332 Bus1=13_328 Bus2=13_333 phases=3 Linecode=2c_.007 Length=0.25049 Units=m