New Line.LINE44 Bus1=41 Bus2=45 phases=3 Linecode=5c_.06 Length=6.338 Units=m
New Line.LINE240 Bus1=230 Bus2=241 phases=3 Linecode=4c_.06 Length=4.1267 Units=m
New Line.LINE252 Bus1=241 Bus2=253 phases=3 Linecode=4c_.06 Length=4.4263 Units=m
New Line.LINE263 Bus1=253 Bus2=264 phases=3 Linecode=4c_.06 Length=5.1279 Units=m
New Line.LINE292 Bus1=285 Bus2=293 phases=3 Linecode=4c_.06 Length=11.9323 Units=m
New Line.LINE301 Bus1=293 Bus2=302 phases=3 Linecode=4c_.06 Length=4.9681 Units=m
New Line.LINE311 Bus1=302 Bus2=312 phases=3 Linecode=4c_.06 Length=2.7286 Units=m
New Line.LINE323 Bus1=312 Bus2=324 phases=3 Linecode=4c_.06 Length=3.0986 Units=m
New Line.LINE355 Bus1=345 Bus2=356 phases=3 Linecode=4c_.06 Length=20.6379 Units=m
New Line.LINE359 Bus1=351 Bus2=360 phases=3 Linecode=25_SAC_PC Length=6.8092 Units=m
New Line.LINE376 Bus1=364 Bus2=377 phases=3 Linecode=35_SAC_XC Length=3.9189 Units=m
New Line.LINE398 Bus1=382 Bus2=399 phases=3 Linecode=4c_.06 Length=0.5 Units=m
New Line.LINE474 Bus1=458 Bus2=475 phases=3 Linecode=4c_.06 Length=5.6644 Units=m
New Line.LINE492 Bus1=475 Bus2=493 phases=3 Linecode=4c_.06 Length=10.3465 Units=m
New Line.LINE512 Bus1=493 Bus2=513 phases=3 Linecode=4c_.06 Length=7.6963 Units=m
New Line.LINE513 Bus1=493 Bus2=514 phases=3 Linecode=4c_.06 Length=3.8552 Units=m
New Line.LINE533 Bus1=513 Bus2=534 phases=3 Linecode=4c_.06 Length=7.9429 Units=m
New Line.LINE534 Bus1=513 Bus2=535 phases=3 Linecode=4c_.06 Length=14.7834 Units=m
New Line.LINE557 Bus1=535 Bus2=558 phases=3 Linecode=4c_.06 Length=9.914 Units=m
New Line.LINE579 Bus1=558 Bus2=580 phases=3 Linecode=4c_.06 Length=5.8846 Units=m
New Line.LINE603 Bus1=580 Bus2=604 phases=3 Linecode=4c_.06 Length=11.3694 Units=m
New Line.LINE604 Bus1=580 Bus2=605 phases=3 Linecode=4c_.06 Length=16.2218 Units=m
New Line.LINE671 Bus1=650 Bus2=672 phases=3 Linecode=4c_.06 Length=4.4303 Units=m
New Line.LINE672 Bus1=650 Bus2=673 phases=3 Linecode=4c_.06 Length=1.8822 Units=m
New Line.LINE693 Bus1=672 Bus2=694 phases=3 Linecode=4c_.06 Length=4.6043 Units=m
New Line.LINE728 Bus1=712 Bus2=729 phases=3 Linecode=2c_.0145 Length=7.1795 Units=m
New Line.LINE743 Bus1=729 Bus2=744 phases=3 Linecode=2c_.0145 Length=5.1264 Units=m
New Line.LINE778 Bus1=771 Bus2=779 phases=3 Linecode=35_SAC_XC Length=1.6954 Units=m
New Line.LINE779 Bus1=771 Bus2=780 phases=3 Linecode=35_SAC_XC Length=6.505 Units=m
New Line.LINE917 Bus1=912 Bus2=918 phases=3 Linecode=35_SAC_XC Length=7.106 Units=m
New Line.LINE918 Bus1=912 Bus2=919 phases=3 Linecode=35_SAC_XC Length=2.8241 Units=m
New Line.LINE939 Bus1=935 Bus2=940 phases=3 Linecode=25_SAC_PC Length=3.6261 Units=m
New Line.LINE966 Bus1=963 Bus2=967 phases=3 Linecode=25_SAC_PC Length=5.804 Units=m
New Line.LINE1018 Bus1=1012 Bus2=1019 phases=3 Linecode=25_SAC_PC Length=2.5216 Units=m
New Line.LINE1090 Bus1=1087 Bus2=1091 phases=3 Linecode=25_SAC_PC Length=4.8799 Units=m
New Line.LINE1131 Bus1=1130 Bus2=1132 phases=3 Linecode=25_SAC_PC Length=3.1341 Units=m
New Line.LINECmpd_0 Bus1=312 Bus2=345 phases=3 Linecode=4c_.06 Length=11.1643 Units=m
New Line.LINECmpd_1 Bus1=54 Bus2=93 phases=3 Linecode=5c_.06 Length=34.49329 Units=m
New Line.LINECmpd_2 Bus1=111 Bus2=364 phases=3 Linecode=35_SAC_XC Length=13.147227 Units=m
New Line.LINECmpd_3 Bus1=54 Bus2=724 phases=3 Linecode=3c_95_SAC_ASN Length=59.594266 Units=m
New Line.LINECmpd_4 Bus1=1087 Bus2=1160 phases=3 Linecode=25_SAC_PC Length=31.996854 Units=m
New Line.LINECmpd_5 Bus1=356 Bus2=741 phases=3 Linecode=16_PSC Length=13.911025 Units=m
New Line.LINECmpd_6 Bus1=534 Bus2=667 phases=3 Linecode=2c_.0145 Length=12.47117 Units=m
New Line.LINECmpd_7 Bus1=93 Bus2=351 phases=3 Linecode=25_SAC_PC Length=22.454487 Units=m
New Line.LINECmpd_8 Bus1=794 Bus2=977 phases=3 Linecode=3c_95_SAC_ASN Length=28.37957 Units=m
New Line.LINECmpd_9 Bus1=413 Bus2=516 phases=3 Linecode=16_PSC Length=14.460008 Units=m
New Line.LINECmpd_10 Bus1=111 Bus2=663 phases=3 Linecode=2c_25 Length=27.037378 Units=m
New Line.LINECmpd_11 Bus1=449 Bus2=912 phases=3 Linecode=35_SAC_XC Length=22.497352 Units=m
New Line.LINECmpd_12 Bus1=475 Bus2=621 phases=3 Linecode=25_SAC_XC Length=13.40602 Units=m
New Line.LINECmpd_13 Bus1=988 Bus2=1130 phases=3 Linecode=25_SAC_PC Length=21.003271 Units=m
New Line.LINECmpd_14 Bus1=724 Bus2=935 phases=3 Linecode=25_SAC_PC Length=16.657489 Units=m
New Line.LINECmpd_15 Bus1=1 Bus2=25 phases=3 Linecode=.1 Length=9.565918 Units=m
New Line.LINECmpd_16 Bus1=1130 Bus2=1173 phases=3 Linecode=25_SAC_PC Length=19.89626 Units=m
New Line.LINECmpd_17 Bus1=963 Bus2=1066 phases=3 Linecode=25_SAC_PC Length=18.226338 Units=m
New Line.LINECmpd_18 Bus1=535 Bus2=688 phases=3 Linecode=25_SAC_XC Length=11.91137 Units=m
New Line.LINECmpd_19 Bus1=794 Bus2=1012 phases=3 Linecode=25_SAC_PC Length=18.348141 Units=m
New Line.LINECmpd_20 Bus1=93 Bus2=280 phases=3 Linecode=25_SAC_PC Length=16.926191 Units=m
New Line.LINECmpd_21 Bus1=449 Bus2=771 phases=3 Linecode=35_SAC_XC Length=19.083766 Units=m
New Line.LINECmpd_22 Bus1=935 Bus2=1108 phases=3 Linecode=25_SAC_PC Length=26.753827 Units=m
New Line.LINECmpd_23 Bus1=293 Bus2=315 phases=3 Linecode=2c_.0225 Length=13.6682 Units=m
New Line.LINECmpd_24 Bus1=729 Bus2=820 phases=3 Linecode=2c_.0145 Length=9.763791 Units=m
New Line.LINECmpd_25 Bus1=399 Bus2=538 phases=3 Linecode=16_PSC Length=14.69703 Units=m
New Line.LINECmpd_26 Bus1=356 Bus2=551 phases=3 Linecode=16_PSC Length=13.023648 Units=m
New Line.LINECmpd_27 Bus1=345 Bus2=707 phases=3 Linecode=25_SAC_XC Length=13.358792 Units=m
New Line.LINECmpd_28 Bus1=794 Bus2=963 phases=3 Linecode=25_SAC_PC Length=15.067694 Units=m
New Line.LINECmpd_29 Bus1=285 Bus2=372 phases=3 Linecode=3c_95_SAC_XC Length=26.131045 Units=m
New Line.LINECmpd_30 Bus1=351 Bus2=615 phases=3 Linecode=25_SAC_PC Length=18.99504 Units=m
New Line.LINECmpd_31 Bus1=458 Bus2=597 phases=3 Linecode=2c_.0145 Length=13.21824 Units=m
New Line.LINECmpd_32 Bus1=45 Bus2=54 phases=3 Linecode=5c_.06 Length=2.96123 Units=m
New Line.LINECmpd_33 Bus1=230 Bus2=251 phases=3 Linecode=2c_.0225 Length=11.8437 Units=m
New Line.LINECmpd_34 Bus1=604 Bus2=743 phases=3 Linecode=2c_.0145 Length=13.01111 Units=m
New Line.LINECmpd_35 Bus1=673 Bus2=776 phases=3 Linecode=2c_.0145 Length=11.92346 Units=m
New Line.LINECmpd_36 Bus1=977 Bus2=1087 phases=3 Linecode=25_SAC_PC Length=9.232757 Units=m
New Line.LINECmpd_37 Bus1=514 Bus2=676 phases=3 Linecode=25_SAC_XC Length=12.46985 Units=m
New Line.LINECmpd_38 Bus1=724 Bus2=794 phases=3 Linecode=3c_95_SAC_ASN Length=9.1749 Units=m
New Line.LINECmpd_39 Bus1=558 Bus2=734 phases=3 Linecode=2c_.0145 Length=12.90212 Units=m
New Line.LINECmpd_40 Bus1=605 Bus2=759 phases=3 Linecode=25_SAC_XC Length=12.84978 Units=m
New Line.LINECmpd_41 Bus1=382 Bus2=413 phases=3 Linecode=4c_.06 Length=3.4535 Units=m
New Line.LINECmpd_42 Bus1=372 Bus2=449 phases=3 Linecode=35_SAC_XC Length=1.23149 Units=m
New Line.LINECmpd_43 Bus1=977 Bus2=1098 phases=3 Linecode=25_SAC_PC Length=18.74819 Units=m
New Line.LINECmpd_44 Bus1=111 Bus2=211 phases=3 Linecode=5c_.06 Length=4.98406 Units=m
New Line.LINECmpd_45 Bus1=580 Bus2=742 phases=3 Linecode=25_SAC_XC Length=14.15514 Units=m
New Line.LINECmpd_46 Bus1=694 Bus2=747 phases=3 Linecode=25_SAC_XC Length=11.6755 Units=m
New Line.LINECmpd_47 Bus1=493 Bus2=645 phases=3 Linecode=2c_.0145 Length=12.07834 Units=m
New Line.LINECmpd_48 Bus1=356 Bus2=382 phases=3 Linecode=4c_.06 Length=20.1329 Units=m
New Line.LINECmpd_49 Bus1=25 Bus2=41 phases=3 Linecode=5c_.06 Length=26.35692 Units=m
New Line.LINECmpd_50 Bus1=364 Bus2=394 phases=3 Linecode=35_SAC_XC Length=7.7739 Units=m
New Line.LINECmpd_51 Bus1=41 Bus2=48 phases=3 Linecode=2c Length=12.5793 Units=m
New Line.LINECmpd_52 Bus1=93 Bus2=111 phases=3 Linecode=5c_.06 Length=22.7044 Units=m
New Line.LINECmpd_53 Bus1=672 Bus2=712 phases=3 Linecode=4c_.06 Length=15.3896 Units=m
New Line.LINECmpd_54 Bus1=302 Bus2=325 phases=3 Linecode=2c_.0145 Length=14.7443 Units=m
New Line.LINECmpd_55 Bus1=264 Bus2=284 phases=3 Linecode=2c_.0145 Length=10.4296 Units=m
New Line.LINECmpd_56 Bus1=211 Bus2=230 phases=3 Linecode=4c_.06 Length=14.8152 Units=m
New Line.LINECmpd_57 Bus1=604 Bus2=650 phases=3 Linecode=4c_.06 Length=25.5481 Units=m
New Line.LINECmpd_58 Bus1=413 Bus2=458 phases=3 Linecode=4c_.06 Length=11.4925 Units=m
New Line.LINECmpd_59 Bus1=253 Bus2=273 phases=3 Linecode=2c_.0225 Length=11.5166 Units=m
New Line.LINECmpd_60 Bus1=324 Bus2=347 phases=3 Linecode=2c_.0145 Length=11.9139 Units=m
New Line.LINECmpd_61 Bus1=241 Bus2=262 phases=3 Linecode=2c_.0225 Length=11.6943 Units=m
New Line.LINECmpd_62 Bus1=264 Bus2=285 phases=3 Linecode=4c_.06 Length=4.37281 Units=m
New Line.LINECmpd_63 Bus1=977 Bus2=988 phases=3 Linecode=3c_95_SAC_ASN Length=5.3795 Units=m
New Line.LINECmpd_64 Bus1=1012 Bus2=1027 phases=3 Linecode=25_SAC_PC Length=7.7666 Units=m
New Line.LINECmpd_65 Bus1=45 Bus2=53 phases=3 Linecode=2c Length=12.379 Units=m
