New Line.LINE55_1 Bus1=55_1 Bus2=55_2 phases=3 Linecode=.1 Length=0.49341 Units=m
New Line.LINE55_2 Bus1=55_2 Bus2=55_3 phases=3 Linecode=.1 Length=0.050922 Units=m
New Line.LINE55_3 Bus1=55_3 Bus2=55_4 phases=3 Linecode=.1 Length=0.042059 Units=m
New Line.LINE55_4 Bus1=55_4 Bus2=55_5 phases=3 Linecode=.1 Length=0.039698 Units=m
New Line.LINE55_5 Bus1=55_5 Bus2=55_6 phases=3 Linecode=.1 Length=0.052802 Units=m
New Line.LINE55_6 Bus1=55_6 Bus2=55_7 phases=3 Linecode=.1 Length=0.046518 Units=m
New Line.LINE55_7 Bus1=55_7 Bus2=55_8 phases=3 Linecode=.1 Length=0.043325 Units=m
New Line.LINE55_8 Bus1=55_8 Bus2=55_9 phases=3 Linecode=.1 Length=0.056437 Units=m
New Line.LINE55_9 Bus1=55_9 Bus2=55_10 phases=3 Linecode=.1 Length=0.067895 Units=m
New Line.LINE55_10 Bus1=55_10 Bus2=55_11 phases=3 Linecode=.1 Length=1.4959 Units=m
New Line.LINE55_11 Bus1=55_11 Bus2=55_12 phases=3 Linecode=.1 Length=0.54111 Units=m
New Line.LINE55_12 Bus1=55_12 Bus2=55_13 phases=3 Linecode=.1 Length=2.6862 Units=m
New Line.LINE55_13 Bus1=55_13 Bus2=55_14 phases=3 Linecode=.1 Length=2.3105 Units=m
New Line.LINE55_14 Bus1=55_14 Bus2=55_15 phases=3 Linecode=.1 Length=0.21766 Units=m
New Line.LINE55_15 Bus1=55_15 Bus2=55_16 phases=3 Linecode=.1 Length=0.23355 Units=m
New Line.LINE55_16 Bus1=55_16 Bus2=55_17 phases=3 Linecode=.1 Length=0.13042 Units=m
New Line.LINE55_17 Bus1=55_17 Bus2=55_18 phases=3 Linecode=.1 Length=0.077795 Units=m
New Line.LINE55_18 Bus1=55_18 Bus2=55_19 phases=3 Linecode=.1 Length=0.10469 Units=m
New Line.LINE55_19 Bus1=55_19 Bus2=55_20 phases=3 Linecode=.1 Length=0.12897 Units=m
New Line.LINE55_20 Bus1=55_20 Bus2=55_21 phases=3 Linecode=.1 Length=0.090686 Units=m
New Line.LINE55_21 Bus1=55_21 Bus2=55_22 phases=3 Linecode=.1 Length=0.11526 Units=m
New Line.LINE55_22 Bus1=55_22 Bus2=55_23 phases=3 Linecode=.1 Length=0.071561 Units=m
New Line.LINE55_23 Bus1=55_23 Bus2=55_24 phases=3 Linecode=.1 Length=0.09717 Units=m
New Line.LINE55_24 Bus1=55_24 Bus2=55_25 phases=3 Linecode=.1 Length=0.37138 Units=m
New Line.LINE55_25 Bus1=55_25 Bus2=55_26 phases=3 Linecode=5c_.06 Length=1.1758 Units=m
New Line.LINE55_26 Bus1=55_26 Bus2=55_27 phases=3 Linecode=5c_.06 Length=0.45705 Units=m
New Line.LINE55_27 Bus1=55_27 Bus2=55_28 phases=3 Linecode=5c_.06 Length=1.3653 Units=m
New Line.LINE55_29 Bus1=55_28 Bus2=55_30 phases=3 Linecode=5c_.06 Length=0.24772 Units=m
New Line.LINE55_31 Bus1=55_30 Bus2=55_32 phases=3 Linecode=5c_.06 Length=0.26683 Units=m
New Line.LINE55_33 Bus1=55_32 Bus2=55_34 phases=3 Linecode=5c_.06 Length=13.1236 Units=m
New Line.LINE55_35 Bus1=55_34 Bus2=55_36 phases=3 Linecode=5c_.06 Length=6.9223 Units=m
New Line.LINE55_37 Bus1=55_36 Bus2=55_38 phases=3 Linecode=5c_.06 Length=0.87932 Units=m
New Line.LINE55_40 Bus1=55_38 Bus2=55_41 phases=3 Linecode=5c_.06 Length=1.919 Units=m
New Line.LINE55_44 Bus1=55_41 Bus2=55_45 phases=3 Linecode=5c_.06 Length=6.338 Units=m
New Line.LINE55_119 Bus1=55_111 Bus2=55_120 phases=3 Linecode=5c_.06 Length=0.2691 Units=m
New Line.LINE55_128 Bus1=55_120 Bus2=55_129 phases=3 Linecode=5c_.06 Length=0.72918 Units=m
New Line.LINE55_138 Bus1=55_129 Bus2=55_139 phases=3 Linecode=5c_.06 Length=0.45967 Units=m
New Line.LINE55_149 Bus1=55_139 Bus2=55_150 phases=3 Linecode=5c_.06 Length=0.59203 Units=m
New Line.LINE55_160 Bus1=55_150 Bus2=55_161 phases=3 Linecode=5c_.06 Length=0.50774 Units=m
New Line.LINE55_169 Bus1=55_161 Bus2=55_170 phases=3 Linecode=5c_.06 Length=0.45618 Units=m
New Line.LINE55_177 Bus1=55_170 Bus2=55_178 phases=3 Linecode=5c_.06 Length=0.39925 Units=m
New Line.LINE55_185 Bus1=55_178 Bus2=55_186 phases=3 Linecode=5c_.06 Length=0.14318 Units=m
New Line.LINE55_193 Bus1=55_186 Bus2=55_194 phases=3 Linecode=5c_.06 Length=0.24413 Units=m
New Line.LINE55_201 Bus1=55_194 Bus2=55_202 phases=3 Linecode=5c_.06 Length=0.35384 Units=m
New Line.LINE55_210 Bus1=55_202 Bus2=55_211 phases=3 Linecode=5c_.06 Length=0.82976 Units=m
New Line.LINE55_219 Bus1=55_211 Bus2=55_220 phases=3 Linecode=4c_.06 Length=10.3121 Units=m
New Line.LINE55_229 Bus1=55_220 Bus2=55_230 phases=3 Linecode=4c_.06 Length=4.5031 Units=m
New Line.LINE55_240 Bus1=55_230 Bus2=55_241 phases=3 Linecode=4c_.06 Length=4.1267 Units=m
New Line.LINE55_252 Bus1=55_241 Bus2=55_253 phases=3 Linecode=4c_.06 Length=4.4263 Units=m
New Line.LINE55_263 Bus1=55_253 Bus2=55_264 phases=3 Linecode=4c_.06 Length=5.1279 Units=m
New Line.LINE55_292 Bus1=55_285 Bus2=55_293 phases=3 Linecode=4c_.06 Length=11.9323 Units=m
New Line.LINE55_293 Bus1=55_285 Bus2=55_294 phases=3 Linecode=3c_95_SAC_XC Length=0.18682 Units=m
New Line.LINE55_301 Bus1=55_293 Bus2=55_302 phases=3 Linecode=4c_.06 Length=4.9681 Units=m
New Line.LINE55_304 Bus1=55_294 Bus2=55_305 phases=3 Linecode=3c_95_SAC_XC Length=0.05099 Units=m
New Line.LINE55_311 Bus1=55_302 Bus2=55_312 phases=3 Linecode=4c_.06 Length=2.7286 Units=m
New Line.LINE55_315 Bus1=55_305 Bus2=55_316 phases=3 Linecode=3c_95_SAC_XC Length=0.039999 Units=m
New Line.LINE55_323 Bus1=55_312 Bus2=55_324 phases=3 Linecode=4c_.06 Length=3.0986 Units=m
New Line.LINE55_325 Bus1=55_316 Bus2=55_326 phases=3 Linecode=3c_95_SAC_XC Length=0.041232 Units=m
New Line.LINE55_335 Bus1=55_324 Bus2=55_336 phases=3 Linecode=2c_.0145 Length=7.4415 Units=m
New Line.LINE55_337 Bus1=55_326 Bus2=55_338 phases=3 Linecode=3c_95_SAC_XC Length=0.053852 Units=m
New Line.LINE55_346 Bus1=55_336 Bus2=55_347 phases=3 Linecode=2c_.0145 Length=4.4724 Units=m
New Line.LINE55_347 Bus1=55_338 Bus2=55_348 phases=3 Linecode=3c_95_SAC_XC Length=0.036057 Units=m
New Line.LINE55_355 Bus1=55_345 Bus2=55_356 phases=3 Linecode=4c_.06 Length=20.6379 Units=m
New Line.LINE55_357 Bus1=55_348 Bus2=55_358 phases=3 Linecode=3c_95_SAC_XC Length=0.092195 Units=m
New Line.LINE55_359 Bus1=55_351 Bus2=55_360 phases=3 Linecode=25_SAC_PC Length=6.8092 Units=m
New Line.LINE55_371 Bus1=55_358 Bus2=55_372 phases=3 Linecode=3c_95_SAC_XC Length=25.6299 Units=m
New Line.LINE55_376 Bus1=55_364 Bus2=55_377 phases=3 Linecode=35_SAC_XC Length=3.9189 Units=m
New Line.LINE55_386 Bus1=55_372 Bus2=55_387 phases=3 Linecode=35_SAC_XC Length=0.44273 Units=m
New Line.LINE55_398 Bus1=55_382 Bus2=55_399 phases=3 Linecode=4c_.06 Length=0.5 Units=m
New Line.LINE55_401 Bus1=55_387 Bus2=55_402 phases=3 Linecode=35_SAC_XC Length=0.14 Units=m
New Line.LINE55_415 Bus1=55_399 Bus2=55_416 phases=3 Linecode=16_PSC Length=0.29203 Units=m
New Line.LINE55_418 Bus1=55_402 Bus2=55_419 phases=3 Linecode=35_SAC_XC Length=0.10198 Units=m
New Line.LINE55_430 Bus1=55_416 Bus2=55_431 phases=3 Linecode=16_PSC Length=0.2508 Units=m
New Line.LINE55_433 Bus1=55_419 Bus2=55_434 phases=3 Linecode=35_SAC_XC Length=0.14866 Units=m
New Line.LINE55_445 Bus1=55_431 Bus2=55_446 phases=3 Linecode=16_PSC Length=0.35355 Units=m
New Line.LINE55_448 Bus1=55_434 Bus2=55_449 phases=3 Linecode=35_SAC_XC Length=0.39812 Units=m
New Line.LINE55_460 Bus1=55_446 Bus2=55_461 phases=3 Linecode=16_PSC Length=0.24413 Units=m
New Line.LINE55_474 Bus1=55_458 Bus2=55_475 phases=3 Linecode=4c_.06 Length=5.6644 Units=m
New Line.LINE55_477 Bus1=55_461 Bus2=55_478 phases=3 Linecode=16_PSC Length=0.98082 Units=m
New Line.LINE55_492 Bus1=55_475 Bus2=55_493 phases=3 Linecode=4c_.06 Length=10.3465 Units=m
New Line.LINE55_496 Bus1=55_478 Bus2=55_497 phases=3 Linecode=16_PSC Length=2.1865 Units=m
New Line.LINE55_512 Bus1=55_493 Bus2=55_513 phases=3 Linecode=4c_.06 Length=7.6963 Units=m
New Line.LINE55_513 Bus1=55_493 Bus2=55_514 phases=3 Linecode=4c_.06 Length=3.8552 Units=m
New Line.LINE55_516 Bus1=55_497 Bus2=55_517 phases=3 Linecode=16_PSC Length=3.984 Units=m
New Line.LINE55_533 Bus1=55_513 Bus2=55_534 phases=3 Linecode=4c_.06 Length=7.9429 Units=m
New Line.LINE55_534 Bus1=55_513 Bus2=55_535 phases=3 Linecode=4c_.06 Length=14.7834 Units=m
New Line.LINE55_535 Bus1=55_514 Bus2=55_536 phases=3 Linecode=25_SAC_XC Length=0.35825 Units=m
New Line.LINE55_537 Bus1=55_517 Bus2=55_538 phases=3 Linecode=16_PSC Length=6.4052 Units=m
New Line.LINE55_554 Bus1=55_534 Bus2=55_555 phases=3 Linecode=2c_.0145 Length=0.32845 Units=m
New Line.LINE55_557 Bus1=55_535 Bus2=55_558 phases=3 Linecode=4c_.06 Length=9.914 Units=m
New Line.LINE55_558 Bus1=55_536 Bus2=55_559 phases=3 Linecode=25_SAC_XC Length=0.15811 Units=m
New Line.LINE55_575 Bus1=55_555 Bus2=55_576 phases=3 Linecode=2c_.0145 Length=0.32 Units=m
New Line.LINE55_579 Bus1=55_558 Bus2=55_580 phases=3 Linecode=4c_.06 Length=5.8846 Units=m
New Line.LINE55_582 Bus1=55_559 Bus2=55_583 phases=3 Linecode=25_SAC_XC Length=0.21 Units=m
New Line.LINE55_599 Bus1=55_576 Bus2=55_600 phases=3 Linecode=2c_.0145 Length=0.38275 Units=m
New Line.LINE55_603 Bus1=55_580 Bus2=55_604 phases=3 Linecode=4c_.06 Length=11.3694 Units=m
New Line.LINE55_604 Bus1=55_580 Bus2=55_605 phases=3 Linecode=4c_.06 Length=16.2218 Units=m
New Line.LINE55_606 Bus1=55_583 Bus2=55_607 phases=3 Linecode=25_SAC_XC Length=0.22136 Units=m
New Line.LINE55_622 Bus1=55_600 Bus2=55_623 phases=3 Linecode=2c_.0145 Length=0.37537 Units=m
New Line.LINE55_628 Bus1=55_605 Bus2=55_629 phases=3 Linecode=25_SAC_XC Length=0.29247 Units=m
New Line.LINE55_631 Bus1=55_607 Bus2=55_632 phases=3 Linecode=25_SAC_XC Length=0.27203 Units=m
New Line.LINE55_645 Bus1=55_623 Bus2=55_646 phases=3 Linecode=2c_.0145 Length=5.445 Units=m
New Line.LINE55_651 Bus1=55_629 Bus2=55_652 phases=3 Linecode=25_SAC_XC Length=0.22472 Units=m
New Line.LINE55_653 Bus1=55_632 Bus2=55_654 phases=3 Linecode=25_SAC_XC Length=5.8956 Units=m
New Line.LINE55_666 Bus1=55_646 Bus2=55_667 phases=3 Linecode=2c_.0145 Length=5.6196 Units=m
New Line.LINE55_671 Bus1=55_650 Bus2=55_672 phases=3 Linecode=4c_.06 Length=4.4303 Units=m
New Line.LINE55_672 Bus1=55_650 Bus2=55_673 phases=3 Linecode=4c_.06 Length=1.8822 Units=m
New Line.LINE55_673 Bus1=55_652 Bus2=55_674 phases=3 Linecode=25_SAC_XC Length=0.1456 Units=m
New Line.LINE55_675 Bus1=55_654 Bus2=55_676 phases=3 Linecode=25_SAC_XC Length=5.3545 Units=m
New Line.LINE55_691 Bus1=55_672 Bus2=55_692 phases=3 Linecode=4c_.06 Length=13.2531 Units=m
New Line.LINE55_693 Bus1=55_672 Bus2=55_694 phases=3 Linecode=4c_.06 Length=4.6043 Units=m
New Line.LINE55_694 Bus1=55_673 Bus2=55_695 phases=3 Linecode=2c_.0145 Length=0.35888 Units=m
New Line.LINE55_695 Bus1=55_674 Bus2=55_696 phases=3 Linecode=25_SAC_XC Length=0.21 Units=m
New Line.LINE55_711 Bus1=55_692 Bus2=55_712 phases=3 Linecode=4c_.06 Length=2.1365 Units=m
New Line.LINE55_713 Bus1=55_694 Bus2=55_714 phases=3 Linecode=25_SAC_XC Length=3.8741 Units=m
New Line.LINE55_714 Bus1=55_695 Bus2=55_715 phases=3 Linecode=2c_.0145 Length=0.10198 Units=m
New Line.LINE55_715 Bus1=55_696 Bus2=55_716 phases=3 Linecode=25_SAC_XC Length=0.22361 Units=m
New Line.LINE55_728 Bus1=55_712 Bus2=55_729 phases=3 Linecode=2c_.0145 Length=7.1795 Units=m
New Line.LINE55_730 Bus1=55_714 Bus2=55_731 phases=3 Linecode=25_SAC_XC Length=2.9692 Units=m
New Line.LINE55_731 Bus1=55_715 Bus2=55_732 phases=3 Linecode=2c_.0145 Length=0.10198 Units=m
New Line.LINE55_732 Bus1=55_716 Bus2=55_733 phases=3 Linecode=25_SAC_XC Length=0.32558 Units=m
New Line.LINE55_743 Bus1=55_729 Bus2=55_744 phases=3 Linecode=2c_.0145 Length=5.1264 Units=m
New Line.LINE55_746 Bus1=55_731 Bus2=55_747 phases=3 Linecode=25_SAC_XC Length=4.8322 Units=m
New Line.LINE55_747 Bus1=55_732 Bus2=55_748 phases=3 Linecode=2c_.0145 Length=0.13 Units=m
New Line.LINE55_748 Bus1=55_733 Bus2=55_749 phases=3 Linecode=25_SAC_XC Length=7.2247 Units=m
New Line.LINE55_757 Bus1=55_748 Bus2=55_758 phases=3 Linecode=2c_.0145 Length=0.32802 Units=m
New Line.LINE55_758 Bus1=55_749 Bus2=55_759 phases=3 Linecode=25_SAC_XC Length=4.2031 Units=m
New Line.LINE55_767 Bus1=55_758 Bus2=55_768 phases=3 Linecode=2c_.0145 Length=6.0907 Units=m
New Line.LINE55_775 Bus1=55_768 Bus2=55_776 phases=3 Linecode=2c_.0145 Length=4.8119 Units=m
New Line.LINE55_778 Bus1=55_771 Bus2=55_779 phases=3 Linecode=35_SAC_XC Length=1.6954 Units=m
New Line.LINE55_779 Bus1=55_771 Bus2=55_780 phases=3 Linecode=35_SAC_XC Length=6.505 Units=m
New Line.LINE55_917 Bus1=55_912 Bus2=55_918 phases=3 Linecode=35_SAC_XC Length=7.106 Units=m
New Line.LINE55_918 Bus1=55_912 Bus2=55_919 phases=3 Linecode=35_SAC_XC Length=2.8241 Units=m
New Line.LINE55_939 Bus1=55_935 Bus2=55_940 phases=3 Linecode=25_SAC_PC Length=3.6261 Units=m
New Line.LINE55_966 Bus1=55_963 Bus2=55_967 phases=3 Linecode=25_SAC_PC Length=5.804 Units=m
New Line.LINE55_981 Bus1=55_977 Bus2=55_982 phases=3 Linecode=3c_95_SAC_ASN Length=2.7518 Units=m
New Line.LINE55_987 Bus1=55_982 Bus2=55_988 phases=3 Linecode=3c_95_SAC_ASN Length=2.6277 Units=m
New Line.LINE55_993 Bus1=55_988 Bus2=55_994 phases=3 Linecode=25_SAC_PC Length=0.49244 Units=m
New Line.LINE55_1000 Bus1=55_994 Bus2=55_1001 phases=3 Linecode=25_SAC_PC Length=0.064031 Units=m
New Line.LINE55_1007 Bus1=55_1001 Bus2=55_1008 phases=3 Linecode=25_SAC_PC Length=0.10296 Units=m
New Line.LINE55_1014 Bus1=55_1008 Bus2=55_1015 phases=3 Linecode=25_SAC_PC Length=0.28178 Units=m
New Line.LINE55_1018 Bus1=55_1012 Bus2=55_1019 phases=3 Linecode=25_SAC_PC Length=2.5216 Units=m
New Line.LINE55_1022 Bus1=55_1015 Bus2=55_1023 phases=3 Linecode=25_SAC_PC Length=0.25942 Units=m
New Line.LINE55_1029 Bus1=55_1023 Bus2=55_1030 phases=3 Linecode=25_SAC_PC Length=0.17804 Units=m
New Line.LINE55_1035 Bus1=55_1030 Bus2=55_1036 phases=3 Linecode=25_SAC_PC Length=0.13454 Units=m
New Line.LINE55_1041 Bus1=55_1036 Bus2=55_1042 phases=3 Linecode=25_SAC_PC Length=0.18028 Units=m
New Line.LINE55_1047 Bus1=55_1042 Bus2=55_1048 phases=3 Linecode=25_SAC_PC Length=0.586 Units=m
New Line.LINE55_1052 Bus1=55_1048 Bus2=55_1053 phases=3 Linecode=25_SAC_PC Length=0.46819 Units=m
New Line.LINE55_1057 Bus1=55_1053 Bus2=55_1058 phases=3 Linecode=25_SAC_PC Length=0.54708 Units=m
New Line.LINE55_1062 Bus1=55_1058 Bus2=55_1063 phases=3 Linecode=25_SAC_PC Length=4.0752 Units=m
New Line.LINE55_1067 Bus1=55_1063 Bus2=55_1068 phases=3 Linecode=25_SAC_PC Length=3.1894 Units=m
New Line.LINE55_1071 Bus1=55_1068 Bus2=55_1072 phases=3 Linecode=25_SAC_PC Length=0.33956 Units=m
New Line.LINE55_1075 Bus1=55_1072 Bus2=55_1076 phases=3 Linecode=25_SAC_PC Length=0.37122 Units=m
New Line.LINE55_1079 Bus1=55_1076 Bus2=55_1080 phases=3 Linecode=25_SAC_PC Length=0.35014 Units=m
New Line.LINE55_1083 Bus1=55_1080 Bus2=55_1084 phases=3 Linecode=25_SAC_PC Length=0.31257 Units=m
New Line.LINE55_1087 Bus1=55_1084 Bus2=55_1088 phases=3 Linecode=25_SAC_PC Length=0.77466 Units=m
New Line.LINE55_1090 Bus1=55_1087 Bus2=55_1091 phases=3 Linecode=25_SAC_PC Length=4.8799 Units=m
New Line.LINE55_1092 Bus1=55_1088 Bus2=55_1093 phases=3 Linecode=25_SAC_PC Length=2.5744 Units=m
New Line.LINE55_1096 Bus1=55_1093 Bus2=55_1097 phases=3 Linecode=25_SAC_PC Length=0.94372 Units=m
New Line.LINE55_1100 Bus1=55_1097 Bus2=55_1101 phases=3 Linecode=25_SAC_PC Length=1.3231 Units=m
New Line.LINE55_1103 Bus1=55_1101 Bus2=55_1104 phases=3 Linecode=25_SAC_PC Length=0.20616 Units=m
New Line.LINE55_1106 Bus1=55_1104 Bus2=55_1107 phases=3 Linecode=25_SAC_PC Length=1.128 Units=m
New Line.LINE55_1109 Bus1=55_1107 Bus2=55_1110 phases=3 Linecode=25_SAC_PC Length=0.20518 Units=m
New Line.LINE55_1111 Bus1=55_1110 Bus2=55_1112 phases=3 Linecode=25_SAC_PC Length=0.13038 Units=m
New Line.LINE55_1113 Bus1=55_1112 Bus2=55_1114 phases=3 Linecode=25_SAC_PC Length=0.15653 Units=m
New Line.LINE55_1115 Bus1=55_1114 Bus2=55_1116 phases=3 Linecode=25_SAC_PC Length=0.19235 Units=m
New Line.LINE55_1117 Bus1=55_1116 Bus2=55_1118 phases=3 Linecode=25_SAC_PC Length=0.11 Units=m
New Line.LINE55_1119 Bus1=55_1118 Bus2=55_1120 phases=3 Linecode=25_SAC_PC Length=0.17263 Units=m
New Line.LINE55_1121 Bus1=55_1120 Bus2=55_1122 phases=3 Linecode=25_SAC_PC Length=0.1118 Units=m
New Line.LINE55_1123 Bus1=55_1122 Bus2=55_1124 phases=3 Linecode=25_SAC_PC Length=0.24207 Units=m
New Line.LINE55_1125 Bus1=55_1124 Bus2=55_1126 phases=3 Linecode=25_SAC_PC Length=0.24042 Units=m
New Line.LINE55_1127 Bus1=55_1126 Bus2=55_1128 phases=3 Linecode=25_SAC_PC Length=0.17692 Units=m
New Line.LINE55_1129 Bus1=55_1128 Bus2=55_1130 phases=3 Linecode=25_SAC_PC Length=0.3821 Units=m
New Line.LINE55_1131 Bus1=55_1130 Bus2=55_1132 phases=3 Linecode=25_SAC_PC Length=3.1341 Units=m
New Line.LINE55_Cmpd_0 Bus1=55_935 Bus2=55_1108 phases=3 Linecode=25_SAC_PC Length=26.753827 Units=m
New Line.LINE55_Cmpd_1 Bus1=55_794 Bus2=55_963 phases=3 Linecode=25_SAC_PC Length=15.067694 Units=m
New Line.LINE55_Cmpd_2 Bus1=55_449 Bus2=55_912 phases=3 Linecode=35_SAC_XC Length=22.497352 Units=m
New Line.LINE55_Cmpd_3 Bus1=55_729 Bus2=55_820 phases=3 Linecode=2c_.0145 Length=9.763791 Units=m
New Line.LINE55_Cmpd_4 Bus1=55_1087 Bus2=55_1160 phases=3 Linecode=25_SAC_PC Length=31.996854 Units=m
New Line.LINE55_Cmpd_5 Bus1=55_54 Bus2=55_724 phases=3 Linecode=3c_95_SAC_ASN Length=59.594266 Units=m
New Line.LINE55_Cmpd_6 Bus1=55_535 Bus2=55_688 phases=3 Linecode=25_SAC_XC Length=11.91137 Units=m
New Line.LINE55_Cmpd_7 Bus1=55_794 Bus2=55_977 phases=3 Linecode=3c_95_SAC_ASN Length=28.37957 Units=m
New Line.LINE55_Cmpd_8 Bus1=55_604 Bus2=55_743 phases=3 Linecode=2c_.0145 Length=13.01111 Units=m
New Line.LINE55_Cmpd_9 Bus1=55_93 Bus2=55_351 phases=3 Linecode=25_SAC_PC Length=22.454487 Units=m
New Line.LINE55_Cmpd_10 Bus1=55_449 Bus2=55_771 phases=3 Linecode=35_SAC_XC Length=19.083766 Units=m
New Line.LINE55_Cmpd_11 Bus1=55_111 Bus2=55_663 phases=3 Linecode=2c_25 Length=27.037378 Units=m
New Line.LINE55_Cmpd_12 Bus1=55_54 Bus2=55_93 phases=3 Linecode=5c_.06 Length=34.49329 Units=m
New Line.LINE55_Cmpd_13 Bus1=55_111 Bus2=55_364 phases=3 Linecode=35_SAC_XC Length=13.147227 Units=m
New Line.LINE55_Cmpd_14 Bus1=55_1130 Bus2=55_1173 phases=3 Linecode=25_SAC_PC Length=19.89626 Units=m
New Line.LINE55_Cmpd_15 Bus1=55_724 Bus2=55_935 phases=3 Linecode=25_SAC_PC Length=16.657489 Units=m
New Line.LINE55_Cmpd_16 Bus1=55_977 Bus2=55_1087 phases=3 Linecode=25_SAC_PC Length=9.232757 Units=m
New Line.LINE55_Cmpd_17 Bus1=55_963 Bus2=55_1066 phases=3 Linecode=25_SAC_PC Length=18.226338 Units=m
New Line.LINE55_Cmpd_18 Bus1=55_558 Bus2=55_734 phases=3 Linecode=2c_.0145 Length=12.90212 Units=m
New Line.LINE55_Cmpd_19 Bus1=55_794 Bus2=55_1012 phases=3 Linecode=25_SAC_PC Length=18.348141 Units=m
New Line.LINE55_Cmpd_20 Bus1=55_345 Bus2=55_707 phases=3 Linecode=25_SAC_XC Length=13.358792 Units=m
New Line.LINE55_Cmpd_21 Bus1=55_475 Bus2=55_621 phases=3 Linecode=25_SAC_XC Length=13.40602 Units=m
New Line.LINE55_Cmpd_22 Bus1=55_351 Bus2=55_615 phases=3 Linecode=25_SAC_PC Length=18.99504 Units=m
New Line.LINE55_Cmpd_23 Bus1=55_580 Bus2=55_742 phases=3 Linecode=25_SAC_XC Length=14.15514 Units=m
New Line.LINE55_Cmpd_24 Bus1=55_93 Bus2=55_280 phases=3 Linecode=25_SAC_PC Length=16.926191 Units=m
New Line.LINE55_Cmpd_25 Bus1=55_356 Bus2=55_382 phases=3 Linecode=4c_.06 Length=20.1329 Units=m
New Line.LINE55_Cmpd_26 Bus1=55_356 Bus2=55_551 phases=3 Linecode=16_PSC Length=13.023648 Units=m
New Line.LINE55_Cmpd_27 Bus1=55_977 Bus2=55_1098 phases=3 Linecode=25_SAC_PC Length=18.74819 Units=m
New Line.LINE55_Cmpd_28 Bus1=55_724 Bus2=55_794 phases=3 Linecode=3c_95_SAC_ASN Length=9.1749 Units=m
New Line.LINE55_Cmpd_29 Bus1=55_356 Bus2=55_741 phases=3 Linecode=16_PSC Length=13.911025 Units=m
New Line.LINE55_Cmpd_30 Bus1=55_413 Bus2=55_458 phases=3 Linecode=4c_.06 Length=11.4925 Units=m
New Line.LINE55_Cmpd_31 Bus1=55_253 Bus2=55_273 phases=3 Linecode=2c_.0225 Length=11.5166 Units=m
New Line.LINE55_Cmpd_32 Bus1=55_458 Bus2=55_597 phases=3 Linecode=2c_.0145 Length=13.21824 Units=m
New Line.LINE55_Cmpd_33 Bus1=55_364 Bus2=55_394 phases=3 Linecode=35_SAC_XC Length=7.7739 Units=m
New Line.LINE55_Cmpd_34 Bus1=55_413 Bus2=55_516 phases=3 Linecode=16_PSC Length=14.460008 Units=m
New Line.LINE55_Cmpd_35 Bus1=55_45 Bus2=55_54 phases=3 Linecode=5c_.06 Length=2.96123 Units=m
New Line.LINE55_Cmpd_36 Bus1=55_45 Bus2=55_53 phases=3 Linecode=2c Length=12.379 Units=m
New Line.LINE55_Cmpd_37 Bus1=55_382 Bus2=55_413 phases=3 Linecode=4c_.06 Length=3.4535 Units=m
New Line.LINE55_Cmpd_38 Bus1=55_493 Bus2=55_645 phases=3 Linecode=2c_.0145 Length=12.07834 Units=m
New Line.LINE55_Cmpd_39 Bus1=55_302 Bus2=55_325 phases=3 Linecode=2c_.0145 Length=14.7443 Units=m
New Line.LINE55_Cmpd_40 Bus1=55_41 Bus2=55_48 phases=3 Linecode=2c Length=12.5793 Units=m
New Line.LINE55_Cmpd_41 Bus1=55_312 Bus2=55_345 phases=3 Linecode=4c_.06 Length=11.1643 Units=m
New Line.LINE55_Cmpd_42 Bus1=55_264 Bus2=55_285 phases=3 Linecode=4c_.06 Length=4.37281 Units=m
New Line.LINE55_Cmpd_43 Bus1=55_93 Bus2=55_111 phases=3 Linecode=5c_.06 Length=22.7044 Units=m
New Line.LINE55_Cmpd_44 Bus1=55_241 Bus2=55_262 phases=3 Linecode=2c_.0225 Length=11.6943 Units=m
New Line.LINE55_Cmpd_45 Bus1=55_293 Bus2=55_315 phases=3 Linecode=2c_.0225 Length=13.6682 Units=m
New Line.LINE55_Cmpd_46 Bus1=55_230 Bus2=55_251 phases=3 Linecode=2c_.0225 Length=11.8437 Units=m
New Line.LINE55_Cmpd_47 Bus1=55_264 Bus2=55_284 phases=3 Linecode=2c_.0145 Length=10.4296 Units=m
New Line.LINE55_Cmpd_48 Bus1=55_1012 Bus2=55_1027 phases=3 Linecode=25_SAC_PC Length=7.7666 Units=m
New Line.LINE55_Cmpd_49 Bus1=55_604 Bus2=55_650 phases=3 Linecode=4c_.06 Length=25.5481 Units=m
