New Line.LINE55_1 Bus1=55_1 Bus2=55_2 phases=3 Linecode=.1 Length=0.49341 Units=m
New Line.LINE55_2 Bus1=55_2 Bus2=55_3 phases=3 Linecode=.1 Length=0.050922 Units=m
New Line.LINE55_3 Bus1=55_3 Bus2=55_4 phases=3 Linecode=.1 Length=0.042059 Units=m
New Line.LINE55_4 Bus1=55_4 Bus2=55_5 phases=3 Linecode=.1 Length=0.039698 Units=m
New Line.LINE55_5 Bus1=55_5 Bus2=55_6 phases=3 Linecode=.1 Length=0.052802 Units=m
New Line.LINE55_6 Bus1=55_6 Bus2=55_7 phases=3 Linecode=.1 Length=0.046518 Units=m
New Line.LINE55_7 Bus1=55_7 Bus2=55_8 phases=3 Linecode=.1 Length=0.043325 Units=m
New Line.LINE55_8 Bus1=55_8 Bus2=55_9 phases=3 Linecode=.1 Length=0.056437 Units=m
New Line.LINE55_9 Bus1=55_9 Bus2=55_10 phases=3 Linecode=.1 Length=0.067895 Units=m
New Line.LINE55_10 Bus1=55_10 Bus2=55_11 phases=3 Linecode=.1 Length=1.4959 Units=m
New Line.LINE55_11 Bus1=55_11 Bus2=55_12 phases=3 Linecode=.1 Length=0.54111 Units=m
New Line.LINE55_12 Bus1=55_12 Bus2=55_13 phases=3 Linecode=.1 Length=2.6862 Units=m
New Line.LINE55_13 Bus1=55_13 Bus2=55_14 phases=3 Linecode=.1 Length=2.3105 Units=m
New Line.LINE55_14 Bus1=55_14 Bus2=55_15 phases=3 Linecode=.1 Length=0.21766 Units=m
New Line.LINE55_15 Bus1=55_15 Bus2=55_16 phases=3 Linecode=.1 Length=0.23355 Units=m
New Line.LINE55_16 Bus1=55_16 Bus2=55_17 phases=3 Linecode=.1 Length=0.13042 Units=m
New Line.LINE55_17 Bus1=55_17 Bus2=55_18 phases=3 Linecode=.1 Length=0.077795 Units=m
New Line.LINE55_18 Bus1=55_18 Bus2=55_19 phases=3 Linecode=.1 Length=0.10469 Units=m
New Line.LINE55_19 Bus1=55_19 Bus2=55_20 phases=3 Linecode=.1 Length=0.12897 Units=m
New Line.LINE55_20 Bus1=55_20 Bus2=55_21 phases=3 Linecode=.1 Length=0.090686 Units=m
New Line.LINE55_21 Bus1=55_21 Bus2=55_22 phases=3 Linecode=.1 Length=0.11526 Units=m
New Line.LINE55_22 Bus1=55_22 Bus2=55_23 phases=3 Linecode=.1 Length=0.071561 Units=m
New Line.LINE55_23 Bus1=55_23 Bus2=55_24 phases=3 Linecode=.1 Length=0.09717 Units=m
New Line.LINE55_24 Bus1=55_24 Bus2=55_25 phases=3 Linecode=.1 Length=0.37138 Units=m
New Line.LINE55_25 Bus1=55_25 Bus2=55_26 phases=3 Linecode=5c_.06 Length=1.1758 Units=m
New Line.LINE55_26 Bus1=55_26 Bus2=55_27 phases=3 Linecode=5c_.06 Length=0.45705 Units=m
New Line.LINE55_27 Bus1=55_27 Bus2=55_28 phases=3 Linecode=5c_.06 Length=1.3653 Units=m
New Line.LINE55_28 Bus1=55_28 Bus2=55_29 phases=3 Linecode=4_SAC_PC Length=0.16346 Units=m
New Line.LINE55_29 Bus1=55_28 Bus2=55_30 phases=3 Linecode=5c_.06 Length=0.24772 Units=m
New Line.LINE55_30 Bus1=55_29 Bus2=55_31 phases=3 Linecode=4_SAC_PC Length=0.40184 Units=m
New Line.LINE55_31 Bus1=55_30 Bus2=55_32 phases=3 Linecode=5c_.06 Length=0.26683 Units=m
New Line.LINE55_32 Bus1=55_31 Bus2=55_33 phases=3 Linecode=4_SAC_PC Length=0.0664 Units=m
New Line.LINE55_33 Bus1=55_32 Bus2=55_34 phases=3 Linecode=5c_.06 Length=13.1236 Units=m
New Line.LINE55_34 Bus1=55_33 Bus2=55_35 phases=3 Linecode=4_SAC_PC Length=0.049648 Units=m
New Line.LINE55_35 Bus1=55_34 Bus2=55_36 phases=3 Linecode=5c_.06 Length=6.9223 Units=m
New Line.LINE55_36 Bus1=55_35 Bus2=55_37 phases=3 Linecode=4_SAC_PC Length=0.066707 Units=m
New Line.LINE55_37 Bus1=55_36 Bus2=55_38 phases=3 Linecode=5c_.06 Length=0.87932 Units=m
New Line.LINE55_38 Bus1=55_37 Bus2=55_39 phases=3 Linecode=4_SAC_PC Length=0.1261 Units=m
New Line.LINE55_39 Bus1=55_38 Bus2=55_40 phases=3 Linecode=5c_.06 Length=0.37537 Units=m
New Line.LINE55_40 Bus1=55_38 Bus2=55_41 phases=3 Linecode=5c_.06 Length=1.919 Units=m
New Line.LINE55_41 Bus1=55_39 Bus2=55_42 phases=3 Linecode=4_SAC_PC Length=0.21467 Units=m
New Line.LINE55_42 Bus1=55_40 Bus2=55_43 phases=3 Linecode=5c_.06 Length=0.064031 Units=m
New Line.LINE55_43 Bus1=55_41 Bus2=55_44 phases=3 Linecode=2c Length=7.4727 Units=m
New Line.LINE55_44 Bus1=55_41 Bus2=55_45 phases=3 Linecode=5c_.06 Length=6.338 Units=m
New Line.LINE55_45 Bus1=55_42 Bus2=55_46 phases=3 Linecode=4_SAC_PC Length=0.15914 Units=m
New Line.LINE55_46 Bus1=55_43 Bus2=55_47 phases=3 Linecode=5c_.06 Length=0.076157 Units=m
New Line.LINE55_47 Bus1=55_44 Bus2=55_48 phases=3 Linecode=2c Length=5.1066 Units=m
New Line.LINE55_48 Bus1=55_45 Bus2=55_49 phases=3 Linecode=2c Length=7.3182 Units=m
New Line.LINE55_49 Bus1=55_45 Bus2=55_50 phases=3 Linecode=5c_.06 Length=2.2844 Units=m
New Line.LINE55_50 Bus1=55_46 Bus2=55_51 phases=3 Linecode=4_SAC_PC Length=0.11201 Units=m
New Line.LINE55_51 Bus1=55_47 Bus2=55_52 phases=3 Linecode=5c_.06 Length=0.092196 Units=m
New Line.LINE55_52 Bus1=55_49 Bus2=55_53 phases=3 Linecode=2c Length=5.0608 Units=m
New Line.LINE55_53 Bus1=55_50 Bus2=55_54 phases=3 Linecode=5c_.06 Length=0.67683 Units=m
New Line.LINE55_54 Bus1=55_51 Bus2=55_55 phases=3 Linecode=4_SAC_PC Length=0.051884 Units=m
New Line.LINE55_55 Bus1=55_52 Bus2=55_56 phases=3 Linecode=5c_.06 Length=0.1 Units=m
New Line.LINE55_56 Bus1=55_54 Bus2=55_57 phases=3 Linecode=5c_.06 Length=0.89844 Units=m
New Line.LINE55_57 Bus1=55_54 Bus2=55_58 phases=3 Linecode=3c_95_SAC_ASN Length=0.29206 Units=m
New Line.LINE55_58 Bus1=55_55 Bus2=55_59 phases=3 Linecode=4_SAC_PC Length=0.33407 Units=m
New Line.LINE55_59 Bus1=55_56 Bus2=55_60 phases=3 Linecode=5c_.06 Length=0.17263 Units=m
New Line.LINE55_60 Bus1=55_57 Bus2=55_61 phases=3 Linecode=5c_.06 Length=2.4741 Units=m
New Line.LINE55_61 Bus1=55_58 Bus2=55_62 phases=3 Linecode=3c_95_SAC_ASN Length=0.18788 Units=m
New Line.LINE55_62 Bus1=55_60 Bus2=55_63 phases=3 Linecode=5c_.06 Length=0.17464 Units=m
New Line.LINE55_63 Bus1=55_61 Bus2=55_64 phases=3 Linecode=5c_.06 Length=2.0207 Units=m
New Line.LINE55_64 Bus1=55_62 Bus2=55_65 phases=3 Linecode=3c_95_SAC_ASN Length=0.12369 Units=m
New Line.LINE55_65 Bus1=55_63 Bus2=55_66 phases=3 Linecode=5c_.06 Length=0.47127 Units=m
New Line.LINE55_66 Bus1=55_64 Bus2=55_67 phases=3 Linecode=5c_.06 Length=0.66731 Units=m
New Line.LINE55_67 Bus1=55_65 Bus2=55_68 phases=3 Linecode=3c_95_SAC_ASN Length=0.1118 Units=m
New Line.LINE55_68 Bus1=55_67 Bus2=55_69 phases=3 Linecode=5c_.06 Length=0.45222 Units=m
New Line.LINE55_69 Bus1=55_68 Bus2=55_70 phases=3 Linecode=3c_95_SAC_ASN Length=0.19 Units=m
New Line.LINE55_70 Bus1=55_69 Bus2=55_71 phases=3 Linecode=5c_.06 Length=1.4356 Units=m
New Line.LINE55_71 Bus1=55_70 Bus2=55_72 phases=3 Linecode=3c_95_SAC_ASN Length=0.37013 Units=m
New Line.LINE55_72 Bus1=55_71 Bus2=55_73 phases=3 Linecode=5c_.06 Length=2.6744 Units=m
New Line.LINE55_73 Bus1=55_72 Bus2=55_74 phases=3 Linecode=3c_95_SAC_ASN Length=0.21378 Units=m
New Line.LINE55_74 Bus1=55_73 Bus2=55_75 phases=3 Linecode=5c_.06 Length=0.91702 Units=m
New Line.LINE55_75 Bus1=55_74 Bus2=55_76 phases=3 Linecode=3c_95_SAC_ASN Length=0.35735 Units=m
New Line.LINE55_76 Bus1=55_75 Bus2=55_77 phases=3 Linecode=4_SAC_PC Length=0.039051 Units=m
New Line.LINE55_77 Bus1=55_75 Bus2=55_78 phases=3 Linecode=5c_.06 Length=0.3455 Units=m
New Line.LINE55_78 Bus1=55_76 Bus2=55_79 phases=3 Linecode=3c_95_SAC_ASN Length=0.45354 Units=m
New Line.LINE55_79 Bus1=55_77 Bus2=55_80 phases=3 Linecode=4_SAC_PC Length=0.044721 Units=m
New Line.LINE55_80 Bus1=55_78 Bus2=55_81 phases=3 Linecode=5c_.06 Length=2.1371 Units=m
New Line.LINE55_81 Bus1=55_78 Bus2=55_82 phases=3 Linecode=5c_.06 Length=7.9198 Units=m
New Line.LINE55_82 Bus1=55_79 Bus2=55_83 phases=3 Linecode=3c_95_SAC_ASN Length=0.43738 Units=m
New Line.LINE55_83 Bus1=55_80 Bus2=55_84 phases=3 Linecode=4_SAC_PC Length=0.041231 Units=m
New Line.LINE55_84 Bus1=55_82 Bus2=55_85 phases=3 Linecode=5c_.06 Length=9.0406 Units=m
New Line.LINE55_85 Bus1=55_83 Bus2=55_86 phases=3 Linecode=3c_95_SAC_ASN Length=0.11045 Units=m
New Line.LINE55_86 Bus1=55_84 Bus2=55_87 phases=3 Linecode=4_SAC_PC Length=0.041233 Units=m
New Line.LINE55_87 Bus1=55_85 Bus2=55_88 phases=3 Linecode=5c_.06 Length=4.1155 Units=m
New Line.LINE55_88 Bus1=55_85 Bus2=55_89 phases=3 Linecode=5c_.06 Length=3.8351 Units=m
New Line.LINE55_89 Bus1=55_86 Bus2=55_90 phases=3 Linecode=3c_95_SAC_ASN Length=0.1118 Units=m
New Line.LINE55_90 Bus1=55_87 Bus2=55_91 phases=3 Linecode=4_SAC_PC Length=0.05099 Units=m
New Line.LINE55_91 Bus1=55_88 Bus2=55_92 phases=3 Linecode=5c_.06 Length=0.70711 Units=m
New Line.LINE55_92 Bus1=55_89 Bus2=55_93 phases=3 Linecode=5c_.06 Length=1.8125 Units=m
New Line.LINE55_93 Bus1=55_90 Bus2=55_94 phases=3 Linecode=3c_95_SAC_ASN Length=0.1118 Units=m
New Line.LINE55_94 Bus1=55_91 Bus2=55_95 phases=3 Linecode=4_SAC_PC Length=0.04123 Units=m
New Line.LINE55_95 Bus1=55_93 Bus2=55_96 phases=3 Linecode=25_SAC_PC Length=0.58234 Units=m
New Line.LINE55_96 Bus1=55_93 Bus2=55_97 phases=3 Linecode=25_SAC_PC Length=0.64189 Units=m
New Line.LINE55_97 Bus1=55_93 Bus2=55_98 phases=3 Linecode=5c_.06 Length=10.3588 Units=m
New Line.LINE55_98 Bus1=55_94 Bus2=55_99 phases=3 Linecode=3c_95_SAC_ASN Length=0.092196 Units=m
New Line.LINE55_99 Bus1=55_95 Bus2=55_100 phases=3 Linecode=4_SAC_PC Length=0.044721 Units=m
New Line.LINE55_100 Bus1=55_96 Bus2=55_101 phases=3 Linecode=25_SAC_PC Length=0.11181 Units=m
New Line.LINE55_101 Bus1=55_97 Bus2=55_102 phases=3 Linecode=25_SAC_PC Length=0.080001 Units=m
New Line.LINE55_102 Bus1=55_98 Bus2=55_103 phases=3 Linecode=5c_.06 Length=0.26948 Units=m
New Line.LINE55_103 Bus1=55_98 Bus2=55_104 phases=3 Linecode=5c_.06 Length=9.3163 Units=m
New Line.LINE55_104 Bus1=55_99 Bus2=55_105 phases=3 Linecode=3c_95_SAC_ASN Length=1.1189 Units=m
New Line.LINE55_105 Bus1=55_100 Bus2=55_106 phases=3 Linecode=4_SAC_PC Length=0.036055 Units=m
New Line.LINE55_106 Bus1=55_101 Bus2=55_107 phases=3 Linecode=25_SAC_PC Length=0.08544 Units=m
New Line.LINE55_107 Bus1=55_102 Bus2=55_108 phases=3 Linecode=25_SAC_PC Length=0.053852 Units=m
New Line.LINE55_108 Bus1=55_103 Bus2=55_109 phases=3 Linecode=5c_.06 Length=0.04472 Units=m
New Line.LINE55_109 Bus1=55_104 Bus2=55_110 phases=3 Linecode=5c_.06 Length=0.21385 Units=m
New Line.LINE55_110 Bus1=55_104 Bus2=55_111 phases=3 Linecode=5c_.06 Length=3.0293 Units=m
New Line.LINE55_111 Bus1=55_105 Bus2=55_112 phases=3 Linecode=3c_95_SAC_ASN Length=7.3746 Units=m
New Line.LINE55_112 Bus1=55_106 Bus2=55_113 phases=3 Linecode=4_SAC_PC Length=0.042427 Units=m
New Line.LINE55_113 Bus1=55_107 Bus2=55_114 phases=3 Linecode=25_SAC_PC Length=0.15652 Units=m
New Line.LINE55_114 Bus1=55_108 Bus2=55_115 phases=3 Linecode=25_SAC_PC Length=0.07211 Units=m
New Line.LINE55_115 Bus1=55_109 Bus2=55_116 phases=3 Linecode=5c_.06 Length=0.070001 Units=m
New Line.LINE55_116 Bus1=55_110 Bus2=55_117 phases=3 Linecode=5c_.06 Length=0.15652 Units=m
New Line.LINE55_117 Bus1=55_111 Bus2=55_118 phases=3 Linecode=2c_25 Length=0.19537 Units=m
New Line.LINE55_118 Bus1=55_111 Bus2=55_119 phases=3 Linecode=35_SAC_XC Length=0.33313 Units=m
New Line.LINE55_119 Bus1=55_111 Bus2=55_120 phases=3 Linecode=5c_.06 Length=0.2691 Units=m
New Line.LINE55_120 Bus1=55_112 Bus2=55_121 phases=3 Linecode=3c_95_SAC_ASN Length=0.89157 Units=m
New Line.LINE55_121 Bus1=55_113 Bus2=55_122 phases=3 Linecode=4_SAC_PC Length=0.20518 Units=m
New Line.LINE55_122 Bus1=55_114 Bus2=55_123 phases=3 Linecode=25_SAC_PC Length=5.5189 Units=m
New Line.LINE55_123 Bus1=55_115 Bus2=55_124 phases=3 Linecode=25_SAC_PC Length=0.041231 Units=m
New Line.LINE55_124 Bus1=55_116 Bus2=55_125 phases=3 Linecode=5c_.06 Length=0.063245 Units=m
New Line.LINE55_125 Bus1=55_117 Bus2=55_126 phases=3 Linecode=5c_.06 Length=0.15297 Units=m
New Line.LINE55_126 Bus1=55_118 Bus2=55_127 phases=3 Linecode=2c_25 Length=0.060828 Units=m
New Line.LINE55_127 Bus1=55_119 Bus2=55_128 phases=3 Linecode=35_SAC_XC Length=0.43174 Units=m
New Line.LINE55_128 Bus1=55_120 Bus2=55_129 phases=3 Linecode=5c_.06 Length=0.72918 Units=m
New Line.LINE55_129 Bus1=55_121 Bus2=55_130 phases=3 Linecode=3c_95_SAC_ASN Length=0.26401 Units=m
New Line.LINE55_130 Bus1=55_121 Bus2=55_131 phases=3 Linecode=3c_95_SAC_ASN Length=4.7194 Units=m
New Line.LINE55_131 Bus1=55_122 Bus2=55_132 phases=3 Linecode=4_SAC_PC Length=0.13454 Units=m
New Line.LINE55_132 Bus1=55_123 Bus2=55_133 phases=3 Linecode=25_SAC_PC Length=1.6059 Units=m
New Line.LINE55_133 Bus1=55_124 Bus2=55_134 phases=3 Linecode=25_SAC_PC Length=0.059999 Units=m
New Line.LINE55_134 Bus1=55_125 Bus2=55_135 phases=3 Linecode=5c_.06 Length=0.053852 Units=m
New Line.LINE55_135 Bus1=55_126 Bus2=55_136 phases=3 Linecode=5c_.06 Length=0.16031 Units=m
New Line.LINE55_136 Bus1=55_127 Bus2=55_137 phases=3 Linecode=2c_25 Length=0.08 Units=m
New Line.LINE55_137 Bus1=55_128 Bus2=55_138 phases=3 Linecode=35_SAC_XC Length=0.060828 Units=m
New Line.LINE55_138 Bus1=55_129 Bus2=55_139 phases=3 Linecode=5c_.06 Length=0.45967 Units=m
New Line.LINE55_139 Bus1=55_130 Bus2=55_140 phases=3 Linecode=3c_95_SAC_ASN Length=0.23409 Units=m
New Line.LINE55_140 Bus1=55_131 Bus2=55_141 phases=3 Linecode=3c_95_SAC_ASN Length=0.28844 Units=m
New Line.LINE55_141 Bus1=55_131 Bus2=55_142 phases=3 Linecode=3c_95_SAC_ASN Length=9.7372 Units=m
New Line.LINE55_142 Bus1=55_132 Bus2=55_143 phases=3 Linecode=4_SAC_PC Length=0.50912 Units=m
New Line.LINE55_143 Bus1=55_133 Bus2=55_144 phases=3 Linecode=25_SAC_PC Length=0.18385 Units=m
New Line.LINE55_144 Bus1=55_134 Bus2=55_145 phases=3 Linecode=25_SAC_PC Length=0.053852 Units=m
New Line.LINE55_145 Bus1=55_135 Bus2=55_146 phases=3 Linecode=5c_.06 Length=0.036056 Units=m
New Line.LINE55_146 Bus1=55_136 Bus2=55_147 phases=3 Linecode=5c_.06 Length=0.15297 Units=m
New Line.LINE55_147 Bus1=55_137 Bus2=55_148 phases=3 Linecode=2c_25 Length=0.063245 Units=m
New Line.LINE55_148 Bus1=55_138 Bus2=55_149 phases=3 Linecode=35_SAC_XC Length=0.060828 Units=m
New Line.LINE55_149 Bus1=55_139 Bus2=55_150 phases=3 Linecode=5c_.06 Length=0.59203 Units=m
New Line.LINE55_150 Bus1=55_140 Bus2=55_151 phases=3 Linecode=3c_95_SAC_ASN Length=0.91088 Units=m
New Line.LINE55_151 Bus1=55_141 Bus2=55_152 phases=3 Linecode=3c_95_SAC_ASN Length=0.14213 Units=m
New Line.LINE55_152 Bus1=55_142 Bus2=55_153 phases=3 Linecode=3c_95_SAC_ASN Length=6.1725 Units=m
New Line.LINE55_153 Bus1=55_143 Bus2=55_154 phases=3 Linecode=4_SAC_PC Length=0.43139 Units=m
New Line.LINE55_154 Bus1=55_144 Bus2=55_155 phases=3 Linecode=25_SAC_PC Length=0.13342 Units=m
New Line.LINE55_155 Bus1=55_145 Bus2=55_156 phases=3 Linecode=25_SAC_PC Length=0.11314 Units=m
New Line.LINE55_156 Bus1=55_146 Bus2=55_157 phases=3 Linecode=5c_.06 Length=0.044723 Units=m
New Line.LINE55_157 Bus1=55_147 Bus2=55_158 phases=3 Linecode=5c_.06 Length=0.14866 Units=m
New Line.LINE55_158 Bus1=55_148 Bus2=55_159 phases=3 Linecode=2c_25 Length=0.044722 Units=m
New Line.LINE55_159 Bus1=55_149 Bus2=55_160 phases=3 Linecode=35_SAC_XC Length=0.063246 Units=m
New Line.LINE55_160 Bus1=55_150 Bus2=55_161 phases=3 Linecode=5c_.06 Length=0.50774 Units=m
New Line.LINE55_161 Bus1=55_152 Bus2=55_162 phases=3 Linecode=3c_95_SAC_ASN Length=0.036057 Units=m
New Line.LINE55_162 Bus1=55_153 Bus2=55_163 phases=3 Linecode=3c_95_SAC_ASN Length=0.67067 Units=m
New Line.LINE55_163 Bus1=55_154 Bus2=55_164 phases=3 Linecode=4_SAC_PC Length=0.47382 Units=m
New Line.LINE55_164 Bus1=55_155 Bus2=55_165 phases=3 Linecode=25_SAC_PC Length=0.07071 Units=m
New Line.LINE55_165 Bus1=55_156 Bus2=55_166 phases=3 Linecode=25_SAC_PC Length=0.78517 Units=m
New Line.LINE55_166 Bus1=55_157 Bus2=55_167 phases=3 Linecode=5c_.06 Length=0.05099 Units=m
New Line.LINE55_167 Bus1=55_159 Bus2=55_168 phases=3 Linecode=2c_25 Length=0.05 Units=m
New Line.LINE55_168 Bus1=55_160 Bus2=55_169 phases=3 Linecode=35_SAC_XC Length=0.044721 Units=m
New Line.LINE55_169 Bus1=55_161 Bus2=55_170 phases=3 Linecode=5c_.06 Length=0.45618 Units=m
New Line.LINE55_170 Bus1=55_162 Bus2=55_171 phases=3 Linecode=3c_95_SAC_ASN Length=0.049999 Units=m
New Line.LINE55_171 Bus1=55_163 Bus2=55_172 phases=3 Linecode=3c_95_SAC_ASN Length=0.53226 Units=m
New Line.LINE55_172 Bus1=55_165 Bus2=55_173 phases=3 Linecode=25_SAC_PC Length=0.14036 Units=m
New Line.LINE55_173 Bus1=55_166 Bus2=55_174 phases=3 Linecode=25_SAC_PC Length=0.071589 Units=m
New Line.LINE55_174 Bus1=55_167 Bus2=55_175 phases=3 Linecode=5c_.06 Length=0.04 Units=m
New Line.LINE55_175 Bus1=55_168 Bus2=55_176 phases=3 Linecode=2c_25 Length=0.053852 Units=m
New Line.LINE55_176 Bus1=55_169 Bus2=55_177 phases=3 Linecode=35_SAC_XC Length=0.036055 Units=m
New Line.LINE55_177 Bus1=55_170 Bus2=55_178 phases=3 Linecode=5c_.06 Length=0.39925 Units=m
New Line.LINE55_178 Bus1=55_171 Bus2=55_179 phases=3 Linecode=3c_95_SAC_ASN Length=0.036056 Units=m
New Line.LINE55_179 Bus1=55_172 Bus2=55_180 phases=3 Linecode=3c_95_SAC_ASN Length=1.042 Units=m
New Line.LINE55_180 Bus1=55_173 Bus2=55_181 phases=3 Linecode=25_SAC_PC Length=0.092195 Units=m
New Line.LINE55_181 Bus1=55_174 Bus2=55_182 phases=3 Linecode=25_SAC_PC Length=0.065002 Units=m
New Line.LINE55_182 Bus1=55_175 Bus2=55_183 phases=3 Linecode=5c_.06 Length=0.053851 Units=m
New Line.LINE55_183 Bus1=55_176 Bus2=55_184 phases=3 Linecode=2c_25 Length=0.063246 Units=m
New Line.LINE55_184 Bus1=55_177 Bus2=55_185 phases=3 Linecode=35_SAC_XC Length=0.041231 Units=m
New Line.LINE55_185 Bus1=55_178 Bus2=55_186 phases=3 Linecode=5c_.06 Length=0.14318 Units=m
New Line.LINE55_186 Bus1=55_179 Bus2=55_187 phases=3 Linecode=3c_95_SAC_ASN Length=0.053852 Units=m
New Line.LINE55_187 Bus1=55_180 Bus2=55_188 phases=3 Linecode=3c_95_SAC_ASN Length=0.45188 Units=m
New Line.LINE55_188 Bus1=55_181 Bus2=55_189 phases=3 Linecode=25_SAC_PC Length=0.11662 Units=m
New Line.LINE55_189 Bus1=55_182 Bus2=55_190 phases=3 Linecode=25_SAC_PC Length=0.063246 Units=m
New Line.LINE55_190 Bus1=55_183 Bus2=55_191 phases=3 Linecode=5c_.06 Length=0.044722 Units=m
New Line.LINE55_191 Bus1=55_184 Bus2=55_192 phases=3 Linecode=2c_25 Length=0.07 Units=m
New Line.LINE55_192 Bus1=55_185 Bus2=55_193 phases=3 Linecode=35_SAC_XC Length=0.065 Units=m
New Line.LINE55_193 Bus1=55_186 Bus2=55_194 phases=3 Linecode=5c_.06 Length=0.24413 Units=m
New Line.LINE55_194 Bus1=55_187 Bus2=55_195 phases=3 Linecode=3c_95_SAC_ASN Length=0.05099 Units=m
New Line.LINE55_195 Bus1=55_188 Bus2=55_196 phases=3 Linecode=3c_95_SAC_ASN Length=0.44777 Units=m
New Line.LINE55_196 Bus1=55_189 Bus2=55_197 phases=3 Linecode=25_SAC_PC Length=0.12042 Units=m
New Line.LINE55_197 Bus1=55_190 Bus2=55_198 phases=3 Linecode=25_SAC_PC Length=0.036054 Units=m
New Line.LINE55_198 Bus1=55_191 Bus2=55_199 phases=3 Linecode=5c_.06 Length=0.053852 Units=m
New Line.LINE55_199 Bus1=55_192 Bus2=55_200 phases=3 Linecode=2c_25 Length=0.11 Units=m
New Line.LINE55_200 Bus1=55_193 Bus2=55_201 phases=3 Linecode=35_SAC_XC Length=0.046097 Units=m
New Line.LINE55_201 Bus1=55_194 Bus2=55_202 phases=3 Linecode=5c_.06 Length=0.35384 Units=m
New Line.LINE55_202 Bus1=55_195 Bus2=55_203 phases=3 Linecode=3c_95_SAC_ASN Length=0.05099 Units=m
New Line.LINE55_203 Bus1=55_196 Bus2=55_204 phases=3 Linecode=3c_95_SAC_ASN Length=0.56859 Units=m
New Line.LINE55_204 Bus1=55_196 Bus2=55_205 phases=3 Linecode=3c_95_SAC_ASN Length=0.39051 Units=m
New Line.LINE55_205 Bus1=55_197 Bus2=55_206 phases=3 Linecode=25_SAC_PC Length=0.27803 Units=m
New Line.LINE55_206 Bus1=55_198 Bus2=55_207 phases=3 Linecode=25_SAC_PC Length=5.975 Units=m
New Line.LINE55_207 Bus1=55_199 Bus2=55_208 phases=3 Linecode=5c_.06 Length=0.060827 Units=m
New Line.LINE55_208 Bus1=55_200 Bus2=55_209 phases=3 Linecode=2c_25 Length=0.13153 Units=m
New Line.LINE55_209 Bus1=55_201 Bus2=55_210 phases=3 Linecode=35_SAC_XC Length=0.044721 Units=m
New Line.LINE55_210 Bus1=55_202 Bus2=55_211 phases=3 Linecode=5c_.06 Length=0.82976 Units=m
New Line.LINE55_211 Bus1=55_203 Bus2=55_212 phases=3 Linecode=3c_95_SAC_ASN Length=0.094869 Units=m
New Line.LINE55_212 Bus1=55_204 Bus2=55_213 phases=3 Linecode=3c_95_SAC_ASN Length=0.52431 Units=m
New Line.LINE55_213 Bus1=55_205 Bus2=55_214 phases=3 Linecode=3c_95_SAC_ASN Length=0.13 Units=m
New Line.LINE55_214 Bus1=55_206 Bus2=55_215 phases=3 Linecode=25_SAC_PC Length=2.9429 Units=m
New Line.LINE55_215 Bus1=55_207 Bus2=55_216 phases=3 Linecode=25_SAC_PC Length=1.9948 Units=m
New Line.LINE55_216 Bus1=55_208 Bus2=55_217 phases=3 Linecode=5c_.06 Length=0.041231 Units=m
New Line.LINE55_217 Bus1=55_209 Bus2=55_218 phases=3 Linecode=2c_25 Length=0.092194 Units=m
New Line.LINE55_218 Bus1=55_210 Bus2=55_219 phases=3 Linecode=35_SAC_XC Length=0.17692 Units=m
New Line.LINE55_219 Bus1=55_211 Bus2=55_220 phases=3 Linecode=4c_.06 Length=10.3121 Units=m
New Line.LINE55_220 Bus1=55_212 Bus2=55_221 phases=3 Linecode=3c_95_SAC_ASN Length=0.42953 Units=m
New Line.LINE55_221 Bus1=55_213 Bus2=55_222 phases=3 Linecode=3c_95_SAC_ASN Length=0.38949 Units=m
New Line.LINE55_222 Bus1=55_214 Bus2=55_223 phases=3 Linecode=3c_95_SAC_ASN Length=0.14036 Units=m
New Line.LINE55_223 Bus1=55_215 Bus2=55_224 phases=3 Linecode=25_SAC_PC Length=7.5787 Units=m
New Line.LINE55_224 Bus1=55_216 Bus2=55_225 phases=3 Linecode=25_SAC_PC Length=0.084852 Units=m
New Line.LINE55_225 Bus1=55_217 Bus2=55_226 phases=3 Linecode=5c_.06 Length=0.044721 Units=m
New Line.LINE55_226 Bus1=55_218 Bus2=55_227 phases=3 Linecode=2c_25 Length=0.030001 Units=m
New Line.LINE55_227 Bus1=55_219 Bus2=55_228 phases=3 Linecode=35_SAC_XC Length=0.041231 Units=m
New Line.LINE55_228 Bus1=55_220 Bus2=55_229 phases=3 Linecode=4c_.06 Length=0.30107 Units=m
New Line.LINE55_229 Bus1=55_220 Bus2=55_230 phases=3 Linecode=4c_.06 Length=4.5031 Units=m
New Line.LINE55_230 Bus1=55_221 Bus2=55_231 phases=3 Linecode=3c_95_SAC_ASN Length=0.26249 Units=m
New Line.LINE55_231 Bus1=55_222 Bus2=55_232 phases=3 Linecode=3c_95_SAC_ASN Length=0.40804 Units=m
New Line.LINE55_232 Bus1=55_223 Bus2=55_233 phases=3 Linecode=3c_95_SAC_ASN Length=0.14318 Units=m
New Line.LINE55_233 Bus1=55_224 Bus2=55_234 phases=3 Linecode=25_SAC_PC Length=0.21213 Units=m
New Line.LINE55_234 Bus1=55_225 Bus2=55_235 phases=3 Linecode=25_SAC_PC Length=0.053852 Units=m
New Line.LINE55_235 Bus1=55_226 Bus2=55_236 phases=3 Linecode=5c_.06 Length=0.044721 Units=m
New Line.LINE55_236 Bus1=55_227 Bus2=55_237 phases=3 Linecode=2c_25 Length=5.9594 Units=m
New Line.LINE55_237 Bus1=55_228 Bus2=55_238 phases=3 Linecode=35_SAC_XC Length=0.060826 Units=m
New Line.LINE55_238 Bus1=55_229 Bus2=55_239 phases=3 Linecode=4c_.06 Length=0.33241 Units=m
New Line.LINE55_239 Bus1=55_230 Bus2=55_240 phases=3 Linecode=2c_.0225 Length=3.8451 Units=m
New Line.LINE55_240 Bus1=55_230 Bus2=55_241 phases=3 Linecode=4c_.06 Length=4.1267 Units=m
New Line.LINE55_241 Bus1=55_231 Bus2=55_242 phases=3 Linecode=3c_95_SAC_ASN Length=0.13601 Units=m
New Line.LINE55_242 Bus1=55_232 Bus2=55_243 phases=3 Linecode=3c_95_SAC_ASN Length=0.35609 Units=m
New Line.LINE55_243 Bus1=55_233 Bus2=55_244 phases=3 Linecode=3c_95_SAC_ASN Length=0.086024 Units=m
New Line.LINE55_244 Bus1=55_234 Bus2=55_245 phases=3 Linecode=25_SAC_PC Length=0.2506 Units=m
New Line.LINE55_245 Bus1=55_235 Bus2=55_246 phases=3 Linecode=25_SAC_PC Length=0.080001 Units=m
New Line.LINE55_246 Bus1=55_236 Bus2=55_247 phases=3 Linecode=5c_.06 Length=0.041231 Units=m
New Line.LINE55_247 Bus1=55_237 Bus2=55_248 phases=3 Linecode=2c_25 Length=0.14866 Units=m
New Line.LINE55_248 Bus1=55_238 Bus2=55_249 phases=3 Linecode=35_SAC_XC Length=0.05099 Units=m
New Line.LINE55_249 Bus1=55_239 Bus2=55_250 phases=3 Linecode=4c_.06 Length=0.32016 Units=m
New Line.LINE55_250 Bus1=55_240 Bus2=55_251 phases=3 Linecode=2c_.0225 Length=7.9986 Units=m
New Line.LINE55_251 Bus1=55_241 Bus2=55_252 phases=3 Linecode=2c_.0225 Length=3.8805 Units=m
New Line.LINE55_252 Bus1=55_241 Bus2=55_253 phases=3 Linecode=4c_.06 Length=4.4263 Units=m
New Line.LINE55_253 Bus1=55_242 Bus2=55_254 phases=3 Linecode=3c_95_SAC_ASN Length=0.16279 Units=m
New Line.LINE55_254 Bus1=55_243 Bus2=55_255 phases=3 Linecode=3c_95_SAC_ASN Length=0.30611 Units=m
New Line.LINE55_255 Bus1=55_244 Bus2=55_256 phases=3 Linecode=3c_95_SAC_ASN Length=0.13038 Units=m
New Line.LINE55_256 Bus1=55_245 Bus2=55_257 phases=3 Linecode=25_SAC_PC Length=0.1044 Units=m
New Line.LINE55_257 Bus1=55_246 Bus2=55_258 phases=3 Linecode=25_SAC_PC Length=0.08 Units=m
New Line.LINE55_258 Bus1=55_247 Bus2=55_259 phases=3 Linecode=5c_.06 Length=0.04 Units=m
New Line.LINE55_259 Bus1=55_248 Bus2=55_260 phases=3 Linecode=2c_25 Length=0.13601 Units=m
New Line.LINE55_260 Bus1=55_249 Bus2=55_261 phases=3 Linecode=35_SAC_XC Length=0.04 Units=m
New Line.LINE55_261 Bus1=55_252 Bus2=55_262 phases=3 Linecode=2c_.0225 Length=7.8138 Units=m
New Line.LINE55_262 Bus1=55_253 Bus2=55_263 phases=3 Linecode=2c_.0225 Length=3.8915 Units=m
New Line.LINE55_263 Bus1=55_253 Bus2=55_264 phases=3 Linecode=4c_.06 Length=5.1279 Units=m
New Line.LINE55_264 Bus1=55_254 Bus2=55_265 phases=3 Linecode=3c_95_SAC_ASN Length=0.13153 Units=m
New Line.LINE55_265 Bus1=55_255 Bus2=55_266 phases=3 Linecode=3c_95_SAC_ASN Length=0.41869 Units=m
New Line.LINE55_266 Bus1=55_256 Bus2=55_267 phases=3 Linecode=3c_95_SAC_ASN Length=0.10198 Units=m
New Line.LINE55_267 Bus1=55_257 Bus2=55_268 phases=3 Linecode=25_SAC_PC Length=0.080002 Units=m
New Line.LINE55_268 Bus1=55_258 Bus2=55_269 phases=3 Linecode=25_SAC_PC Length=0.21095 Units=m
New Line.LINE55_269 Bus1=55_259 Bus2=55_270 phases=3 Linecode=5c_.06 Length=0.04 Units=m
New Line.LINE55_270 Bus1=55_260 Bus2=55_271 phases=3 Linecode=2c_25 Length=0.14036 Units=m
New Line.LINE55_271 Bus1=55_261 Bus2=55_272 phases=3 Linecode=35_SAC_XC Length=0.044721 Units=m
New Line.LINE55_272 Bus1=55_263 Bus2=55_273 phases=3 Linecode=2c_.0225 Length=7.6251 Units=m
New Line.LINE55_273 Bus1=55_264 Bus2=55_274 phases=3 Linecode=2c_.0145 Length=3.9577 Units=m
New Line.LINE55_274 Bus1=55_264 Bus2=55_275 phases=3 Linecode=4c_.06 Length=3.8465 Units=m
New Line.LINE55_275 Bus1=55_265 Bus2=55_276 phases=3 Linecode=3c_95_SAC_ASN Length=0.11 Units=m
New Line.LINE55_276 Bus1=55_266 Bus2=55_277 phases=3 Linecode=3c_95_SAC_ASN Length=0.336 Units=m
New Line.LINE55_277 Bus1=55_267 Bus2=55_278 phases=3 Linecode=3c_95_SAC_ASN Length=0.1005 Units=m
New Line.LINE55_278 Bus1=55_268 Bus2=55_279 phases=3 Linecode=25_SAC_PC Length=0.29411 Units=m
New Line.LINE55_279 Bus1=55_269 Bus2=55_280 phases=3 Linecode=25_SAC_PC Length=6.3096 Units=m
New Line.LINE55_280 Bus1=55_270 Bus2=55_281 phases=3 Linecode=5c_.06 Length=0.050001 Units=m
New Line.LINE55_281 Bus1=55_271 Bus2=55_282 phases=3 Linecode=2c_25 Length=0.13928 Units=m
New Line.LINE55_282 Bus1=55_272 Bus2=55_283 phases=3 Linecode=35_SAC_XC Length=0.044722 Units=m
New Line.LINE55_283 Bus1=55_274 Bus2=55_284 phases=3 Linecode=2c_.0145 Length=6.4719 Units=m
New Line.LINE55_284 Bus1=55_275 Bus2=55_285 phases=3 Linecode=4c_.06 Length=0.52631 Units=m
New Line.LINE55_285 Bus1=55_276 Bus2=55_286 phases=3 Linecode=3c_95_SAC_ASN Length=0.14142 Units=m
New Line.LINE55_286 Bus1=55_277 Bus2=55_287 phases=3 Linecode=3c_95_SAC_ASN Length=0.45255 Units=m
New Line.LINE55_287 Bus1=55_278 Bus2=55_288 phases=3 Linecode=3c_95_SAC_ASN Length=0.23022 Units=m
New Line.LINE55_288 Bus1=55_279 Bus2=55_289 phases=3 Linecode=25_SAC_PC Length=0.25 Units=m
New Line.LINE55_289 Bus1=55_281 Bus2=55_290 phases=3 Linecode=5c_.06 Length=0.070711 Units=m
New Line.LINE55_290 Bus1=55_282 Bus2=55_291 phases=3 Linecode=2c_25 Length=0.14866 Units=m
New Line.LINE55_291 Bus1=55_283 Bus2=55_292 phases=3 Linecode=35_SAC_XC Length=6.092 Units=m
New Line.LINE55_292 Bus1=55_285 Bus2=55_293 phases=3 Linecode=4c_.06 Length=11.9323 Units=m
New Line.LINE55_293 Bus1=55_285 Bus2=55_294 phases=3 Linecode=3c_95_SAC_XC Length=0.18682 Units=m
New Line.LINE55_294 Bus1=55_285 Bus2=55_295 phases=3 Linecode=4c_.06 Length=11.9323 Units=m
New Line.LINE55_295 Bus1=55_286 Bus2=55_296 phases=3 Linecode=3c_95_SAC_ASN Length=0.060829 Units=m
New Line.LINE55_296 Bus1=55_287 Bus2=55_297 phases=3 Linecode=3c_95_SAC_ASN Length=0.34205 Units=m
New Line.LINE55_297 Bus1=55_289 Bus2=55_298 phases=3 Linecode=25_SAC_PC Length=0.32249 Units=m
New Line.LINE55_298 Bus1=55_290 Bus2=55_299 phases=3 Linecode=5c_.06 Length=0.24698 Units=m
New Line.LINE55_299 Bus1=55_291 Bus2=55_300 phases=3 Linecode=2c_25 Length=0.16971 Units=m
New Line.LINE55_300 Bus1=55_292 Bus2=55_301 phases=3 Linecode=35_SAC_XC Length=4.2584 Units=m
New Line.LINE55_301 Bus1=55_293 Bus2=55_302 phases=3 Linecode=4c_.06 Length=4.9681 Units=m
New Line.LINE55_302 Bus1=55_293 Bus2=55_303 phases=3 Linecode=2c_.0225 Length=7.4527 Units=m
New Line.LINE55_303 Bus1=55_293 Bus2=55_304 phases=3 Linecode=4c_.06 Length=4.9681 Units=m
New Line.LINE55_304 Bus1=55_294 Bus2=55_305 phases=3 Linecode=3c_95_SAC_XC Length=0.05099 Units=m
New Line.LINE55_305 Bus1=55_296 Bus2=55_306 phases=3 Linecode=3c_95_SAC_ASN Length=0.085438 Units=m
New Line.LINE55_306 Bus1=55_297 Bus2=55_307 phases=3 Linecode=3c_95_SAC_ASN Length=0.33601 Units=m
New Line.LINE55_307 Bus1=55_298 Bus2=55_308 phases=3 Linecode=25_SAC_PC Length=0.10296 Units=m
New Line.LINE55_308 Bus1=55_299 Bus2=55_309 phases=3 Linecode=35_SAC_XC Length=0.73784 Units=m
New Line.LINE55_309 Bus1=55_300 Bus2=55_310 phases=3 Linecode=2c_25 Length=6.5219 Units=m
New Line.LINE55_310 Bus1=55_301 Bus2=55_311 phases=3 Linecode=35_SAC_XC Length=0.25495 Units=m
New Line.LINE55_311 Bus1=55_302 Bus2=55_312 phases=3 Linecode=4c_.06 Length=2.7286 Units=m
New Line.LINE55_312 Bus1=55_302 Bus2=55_313 phases=3 Linecode=2c_.0145 Length=7.601 Units=m
New Line.LINE55_313 Bus1=55_302 Bus2=55_314 phases=3 Linecode=4c_.06 Length=2.7286 Units=m
New Line.LINE55_314 Bus1=55_303 Bus2=55_315 phases=3 Linecode=2c_.0225 Length=6.2155 Units=m
New Line.LINE55_315 Bus1=55_305 Bus2=55_316 phases=3 Linecode=3c_95_SAC_XC Length=0.039999 Units=m
New Line.LINE55_316 Bus1=55_306 Bus2=55_317 phases=3 Linecode=3c_95_SAC_ASN Length=0.094341 Units=m
New Line.LINE55_317 Bus1=55_307 Bus2=55_318 phases=3 Linecode=3c_95_SAC_ASN Length=0.31401 Units=m
New Line.LINE55_318 Bus1=55_308 Bus2=55_319 phases=3 Linecode=25_SAC_PC Length=0.2184 Units=m
New Line.LINE55_319 Bus1=55_309 Bus2=55_320 phases=3 Linecode=35_SAC_XC Length=0.092196 Units=m
New Line.LINE55_320 Bus1=55_310 Bus2=55_321 phases=3 Linecode=2c_25 Length=3.1622 Units=m
New Line.LINE55_321 Bus1=55_311 Bus2=55_322 phases=3 Linecode=35_SAC_XC Length=0.16763 Units=m
New Line.LINE55_322 Bus1=55_312 Bus2=55_323 phases=3 Linecode=4c_.06 Length=3.6812 Units=m
New Line.LINE55_323 Bus1=55_312 Bus2=55_324 phases=3 Linecode=4c_.06 Length=3.0986 Units=m