New Line.LINE176_1 Bus1=176_1 Bus2=176_2 phases=3 Linecode=3c_300_SAC_XC Length=1.0189 Units=m
New Line.LINE176_2 Bus1=176_2 Bus2=176_3 phases=3 Linecode=3c_300_SAC_XC Length=0.1191 Units=m
New Line.LINE176_3 Bus1=176_3 Bus2=176_4 phases=3 Linecode=3c_300_SAC_XC Length=0.11804 Units=m
New Line.LINE176_4 Bus1=176_4 Bus2=176_5 phases=3 Linecode=3c_300_SAC_XC Length=0.11853 Units=m
New Line.LINE176_5 Bus1=176_5 Bus2=176_6 phases=3 Linecode=3c_300_SAC_XC Length=0.11868 Units=m
New Line.LINE176_6 Bus1=176_6 Bus2=176_7 phases=3 Linecode=3c_300_SAC_XC Length=0.11904 Units=m
New Line.LINE176_7 Bus1=176_7 Bus2=176_8 phases=3 Linecode=3c_300_SAC_XC Length=0.11819 Units=m
New Line.LINE176_8 Bus1=176_8 Bus2=176_9 phases=3 Linecode=3c_300_SAC_XC Length=0.11881 Units=m
New Line.LINE176_9 Bus1=176_9 Bus2=176_10 phases=3 Linecode=3c_300_SAC_XC Length=0.1186 Units=m
New Line.LINE176_10 Bus1=176_10 Bus2=176_11 phases=3 Linecode=3c_300_SAC_XC Length=2.6857 Units=m
New Line.LINE176_11 Bus1=176_11 Bus2=176_12 phases=3 Linecode=3c_300_SAC_XC Length=0.60621 Units=m
New Line.LINE176_12 Bus1=176_12 Bus2=176_13 phases=3 Linecode=3c_300_SAC_XC Length=2.5521 Units=m
New Line.LINE176_13 Bus1=176_13 Bus2=176_14 phases=3 Linecode=3c_300_SAC_XC Length=0.052354 Units=m
New Line.LINE176_14 Bus1=176_14 Bus2=176_15 phases=3 Linecode=3c_300_SAC_XC Length=0.051855 Units=m
New Line.LINE176_15 Bus1=176_15 Bus2=176_16 phases=3 Linecode=3c_300_SAC_XC Length=0.051856 Units=m
New Line.LINE176_16 Bus1=176_16 Bus2=176_17 phases=3 Linecode=3c_300_SAC_XC Length=0.052354 Units=m
New Line.LINE176_17 Bus1=176_17 Bus2=176_18 phases=3 Linecode=3c_300_SAC_XC Length=0.051245 Units=m
New Line.LINE176_18 Bus1=176_18 Bus2=176_19 phases=3 Linecode=3c_300_SAC_XC Length=0.052345 Units=m
New Line.LINE176_19 Bus1=176_19 Bus2=176_20 phases=3 Linecode=3c_300_SAC_XC Length=0.052154 Units=m
New Line.LINE176_20 Bus1=176_20 Bus2=176_21 phases=3 Linecode=3c_300_SAC_XC Length=0.051924 Units=m
New Line.LINE176_21 Bus1=176_21 Bus2=176_22 phases=3 Linecode=3c_300_SAC_XC Length=3.2501 Units=m
New Line.LINE176_22 Bus1=176_22 Bus2=176_23 phases=3 Linecode=3c_300_SAC_XC Length=0.13728 Units=m
New Line.LINE176_23 Bus1=176_23 Bus2=176_24 phases=3 Linecode=3c_300_SAC_XC Length=0.13823 Units=m
New Line.LINE176_24 Bus1=176_24 Bus2=176_25 phases=3 Linecode=3c_300_SAC_XC Length=0.13805 Units=m
New Line.LINE176_25 Bus1=176_25 Bus2=176_26 phases=3 Linecode=3c_300_SAC_XC Length=0.13914 Units=m
New Line.LINE176_26 Bus1=176_26 Bus2=176_27 phases=3 Linecode=3c_300_SAC_XC Length=0.13831 Units=m
New Line.LINE176_27 Bus1=176_27 Bus2=176_28 phases=3 Linecode=3c_300_SAC_XC Length=0.13841 Units=m
New Line.LINE176_28 Bus1=176_28 Bus2=176_29 phases=3 Linecode=3c_300_SAC_XC Length=1.2857 Units=m
New Line.LINE176_29 Bus1=176_29 Bus2=176_30 phases=3 Linecode=4c_.25 Length=1.9492 Units=m
New Line.LINE176_31 Bus1=176_30 Bus2=176_32 phases=3 Linecode=4c_.25 Length=0.18041 Units=m
New Line.LINE176_32 Bus1=176_32 Bus2=176_33 phases=3 Linecode=4c_.25 Length=0.18983 Units=m
New Line.LINE176_33 Bus1=176_33 Bus2=176_34 phases=3 Linecode=4c_.25 Length=0.75305 Units=m
New Line.LINE176_34 Bus1=176_34 Bus2=176_35 phases=3 Linecode=4c_.25 Length=18.8981 Units=m
New Line.LINE176_35 Bus1=176_35 Bus2=176_36 phases=3 Linecode=4c_.25 Length=1.0647 Units=m
New Line.LINE176_36 Bus1=176_36 Bus2=176_37 phases=3 Linecode=4c_.25 Length=0.19038 Units=m
New Line.LINE176_37 Bus1=176_37 Bus2=176_38 phases=3 Linecode=4c_.25 Length=0.17773 Units=m
New Line.LINE176_38 Bus1=176_38 Bus2=176_39 phases=3 Linecode=4c_.25 Length=0.397 Units=m
New Line.LINE176_39 Bus1=176_39 Bus2=176_40 phases=3 Linecode=4c_.25 Length=3.0671 Units=m
New Line.LINE176_40 Bus1=176_40 Bus2=176_41 phases=3 Linecode=4c_.25 Length=3.0813 Units=m
New Line.LINE176_41 Bus1=176_41 Bus2=176_42 phases=3 Linecode=4c_.25 Length=0.64355 Units=m
New Line.LINE176_42 Bus1=176_42 Bus2=176_43 phases=3 Linecode=4c_.25 Length=0.16703 Units=m
New Line.LINE176_43 Bus1=176_43 Bus2=176_44 phases=3 Linecode=4c_.25 Length=0.090603 Units=m
New Line.LINE176_44 Bus1=176_44 Bus2=176_45 phases=3 Linecode=4c_.25 Length=0.11322 Units=m
New Line.LINE176_45 Bus1=176_45 Bus2=176_46 phases=3 Linecode=4c_.25 Length=0.093941 Units=m
New Line.LINE176_46 Bus1=176_46 Bus2=176_47 phases=3 Linecode=4c_.25 Length=0.176 Units=m
New Line.LINE176_47 Bus1=176_47 Bus2=176_48 phases=3 Linecode=4c_.25 Length=0.159 Units=m
New Line.LINE176_48 Bus1=176_48 Bus2=176_49 phases=3 Linecode=4c_.25 Length=0.12093 Units=m
New Line.LINE176_49 Bus1=176_49 Bus2=176_50 phases=3 Linecode=4c_.25 Length=0.067054 Units=m
New Line.LINE176_50 Bus1=176_50 Bus2=176_51 phases=3 Linecode=4c_.25 Length=0.099744 Units=m
New Line.LINE176_51 Bus1=176_51 Bus2=176_52 phases=3 Linecode=4c_.25 Length=0.081025 Units=m
New Line.LINE176_52 Bus1=176_52 Bus2=176_53 phases=3 Linecode=4c_.25 Length=0.095268 Units=m
New Line.LINE176_53 Bus1=176_53 Bus2=176_54 phases=3 Linecode=4c_.25 Length=0.11129 Units=m
New Line.LINE176_54 Bus1=176_54 Bus2=176_55 phases=3 Linecode=4c_.25 Length=0.31729 Units=m
New Line.LINE176_55 Bus1=176_55 Bus2=176_56 phases=3 Linecode=4c_.25 Length=1.4289 Units=m
New Line.LINE176_56 Bus1=176_56 Bus2=176_57 phases=3 Linecode=4c_.25 Length=0.33743 Units=m
New Line.LINE176_57 Bus1=176_57 Bus2=176_58 phases=3 Linecode=4c_.25 Length=1.4788 Units=m
New Line.LINE176_58 Bus1=176_58 Bus2=176_59 phases=3 Linecode=4c_.25 Length=0.98021 Units=m
New Line.LINE176_104 Bus1=176_102 Bus2=176_105 phases=3 Linecode=4c_.12 Length=1.939 Units=m
New Line.LINE176_110 Bus1=176_105 Bus2=176_111 phases=3 Linecode=4c_.12 Length=1.6398 Units=m
New Line.LINE176_116 Bus1=176_111 Bus2=176_117 phases=3 Linecode=2c_.04 Length=6.8256 Units=m
New Line.LINE176_123 Bus1=176_117 Bus2=176_124 phases=3 Linecode=2c_.04 Length=4.4985 Units=m
New Line.LINE176_133 Bus1=176_127 Bus2=176_134 phases=3 Linecode=2c_.04 Length=8.8692 Units=m
New Line.LINE176_141 Bus1=176_134 Bus2=176_142 phases=3 Linecode=2c_.04 Length=5.0849 Units=m
New Line.LINE176_203 Bus1=176_194 Bus2=176_204 phases=3 Linecode=2c_.04 Length=8.3069 Units=m
New Line.LINE176_206 Bus1=176_196 Bus2=176_207 phases=3 Linecode=2c_.04 Length=7.333 Units=m
New Line.LINE176_215 Bus1=176_204 Bus2=176_216 phases=3 Linecode=2c_.04 Length=3.7623 Units=m
New Line.LINE176_219 Bus1=176_207 Bus2=176_220 phases=3 Linecode=2c_.04 Length=4.0687 Units=m
New Line.LINE176_232 Bus1=176_218 Bus2=176_233 phases=3 Linecode=4c_.12 Length=4.1005 Units=m
New Line.LINE176_302 Bus1=176_285 Bus2=176_303 phases=3 Linecode=3c_300_ASN Length=0.23049 Units=m
New Line.LINE176_306 Bus1=176_288 Bus2=176_307 phases=3 Linecode=2c_.04 Length=5.4459 Units=m
New Line.LINE176_321 Bus1=176_301 Bus2=176_322 phases=3 Linecode=4c_.12 Length=6.7282 Units=m
New Line.LINE176_322 Bus1=176_301 Bus2=176_323 phases=3 Linecode=2c_.04 Length=7.9363 Units=m
New Line.LINE176_324 Bus1=176_303 Bus2=176_325 phases=3 Linecode=3c_300_ASN Length=0.15587 Units=m
New Line.LINE176_341 Bus1=176_322 Bus2=176_342 phases=3 Linecode=4c_.12 Length=2.5429 Units=m
New Line.LINE176_344 Bus1=176_323 Bus2=176_345 phases=3 Linecode=2c_.04 Length=4.8547 Units=m
New Line.LINE176_345 Bus1=176_325 Bus2=176_346 phases=3 Linecode=3c_300_ASN Length=0.23379 Units=m
New Line.LINE176_363 Bus1=176_342 Bus2=176_364 phases=3 Linecode=4c_.12 Length=6.4899 Units=m
New Line.LINE176_366 Bus1=176_346 Bus2=176_367 phases=3 Linecode=3c_300_ASN Length=0.228 Units=m
New Line.LINE176_382 Bus1=176_364 Bus2=176_383 phases=3 Linecode=4c_.12 Length=1.4222 Units=m
New Line.LINE176_385 Bus1=176_367 Bus2=176_386 phases=3 Linecode=3c_300_ASN Length=8.9783 Units=m
New Line.LINE176_400 Bus1=176_382 Bus2=176_401 phases=3 Linecode=2c_.04 Length=4.3632 Units=m
New Line.LINE176_404 Bus1=176_383 Bus2=176_405 phases=3 Linecode=4c_.12 Length=1.3531 Units=m
New Line.LINE176_406 Bus1=176_386 Bus2=176_407 phases=3 Linecode=3c_300_ASN Length=10.7726 Units=m
New Line.LINE176_409 Bus1=176_389 Bus2=176_410 phases=3 Linecode=2c_.04 Length=6.0619 Units=m
New Line.LINE176_427 Bus1=176_405 Bus2=176_428 phases=3 Linecode=2c_.04 Length=0.43078 Units=m
New Line.LINE176_429 Bus1=176_407 Bus2=176_430 phases=3 Linecode=3c_300_ASN Length=1.6648 Units=m
New Line.LINE176_439 Bus1=176_415 Bus2=176_440 phases=3 Linecode=2c_.04 Length=4.9893 Units=m
New Line.LINE176_440 Bus1=176_415 Bus2=176_441 phases=3 Linecode=2c_.04 Length=4.9893 Units=m
New Line.LINE176_453 Bus1=176_428 Bus2=176_454 phases=3 Linecode=2c_.04 Length=0.088091 Units=m
New Line.LINE176_455 Bus1=176_430 Bus2=176_456 phases=3 Linecode=3c_300_ASN Length=11.9762 Units=m
New Line.LINE176_477 Bus1=176_454 Bus2=176_478 phases=3 Linecode=2c_.04 Length=0.089051 Units=m
New Line.LINE176_479 Bus1=176_456 Bus2=176_480 phases=3 Linecode=3c_300_ASN Length=2.2283 Units=m
New Line.LINE176_482 Bus1=176_457 Bus2=176_483 phases=3 Linecode=2c_.04 Length=6.1533 Units=m
New Line.LINE176_504 Bus1=176_478 Bus2=176_505 phases=3 Linecode=2c_.04 Length=0.088769 Units=m
New Line.LINE176_506 Bus1=176_480 Bus2=176_507 phases=3 Linecode=3c_300_ASN Length=6.6346 Units=m
New Line.LINE176_511 Bus1=176_483 Bus2=176_512 phases=3 Linecode=2c_.04 Length=5.0943 Units=m
New Line.LINE176_531 Bus1=176_505 Bus2=176_532 phases=3 Linecode=2c_.04 Length=0.088752 Units=m
New Line.LINE176_533 Bus1=176_507 Bus2=176_534 phases=3 Linecode=3c_300_ASN Length=2.2836 Units=m
New Line.LINE176_557 Bus1=176_532 Bus2=176_558 phases=3 Linecode=2c_.04 Length=0.57369 Units=m
New Line.LINE176_559 Bus1=176_534 Bus2=176_560 phases=3 Linecode=3c_300_ASN Length=0.10934 Units=m
New Line.LINE176_574 Bus1=176_547 Bus2=176_575 phases=3 Linecode=2c_.04 Length=2.344 Units=m
New Line.LINE176_575 Bus1=176_547 Bus2=176_576 phases=3 Linecode=2c_.04 Length=2.344 Units=m
New Line.LINE176_576 Bus1=176_548 Bus2=176_577 phases=3 Linecode=2c_.04 Length=6.3346 Units=m
New Line.LINE176_578 Bus1=176_549 Bus2=176_579 phases=3 Linecode=2c_.04 Length=5.3837 Units=m
New Line.LINE176_588 Bus1=176_558 Bus2=176_589 phases=3 Linecode=2c_.04 Length=0.57344 Units=m
New Line.LINE176_592 Bus1=176_560 Bus2=176_593 phases=3 Linecode=3c_300_ASN Length=0.10977 Units=m
New Line.LINE176_601 Bus1=176_568 Bus2=176_602 phases=3 Linecode=2c_.04 Length=5.3316 Units=m
New Line.LINE176_618 Bus1=176_589 Bus2=176_619 phases=3 Linecode=2c_.04 Length=0.070229 Units=m
New Line.LINE176_622 Bus1=176_593 Bus2=176_623 phases=3 Linecode=3c_300_ASN Length=0.24044 Units=m
New Line.LINE176_649 Bus1=176_619 Bus2=176_650 phases=3 Linecode=2c_.04 Length=0.070328 Units=m
New Line.LINE176_652 Bus1=176_623 Bus2=176_653 phases=3 Linecode=3c_300_ASN Length=0.28959 Units=m
New Line.LINE176_678 Bus1=176_650 Bus2=176_679 phases=3 Linecode=2c_.04 Length=0.071218 Units=m
New Line.LINE176_681 Bus1=176_653 Bus2=176_682 phases=3 Linecode=3c_300_ASN Length=0.51608 Units=m
New Line.LINE176_683 Bus1=176_654 Bus2=176_684 phases=3 Linecode=2c_.04 Length=6.5306 Units=m
New Line.LINE176_709 Bus1=176_679 Bus2=176_710 phases=3 Linecode=2c_.04 Length=0.069353 Units=m
New Line.LINE176_711 Bus1=176_682 Bus2=176_712 phases=3 Linecode=3c_300_ASN Length=0.34386 Units=m
New Line.LINE176_713 Bus1=176_684 Bus2=176_714 phases=3 Linecode=2c_.04 Length=3.832 Units=m
New Line.LINE176_720 Bus1=176_691 Bus2=176_721 phases=3 Linecode=2c_.04 Length=8.4976 Units=m
New Line.LINE176_737 Bus1=176_710 Bus2=176_738 phases=3 Linecode=2c_.04 Length=0.070726 Units=m
New Line.LINE176_739 Bus1=176_712 Bus2=176_740 phases=3 Linecode=3c_300_ASN Length=0.18837 Units=m
New Line.LINE176_752 Bus1=176_724 Bus2=176_753 phases=3 Linecode=2c_.04 Length=5.8887 Units=m
New Line.LINE176_753 Bus1=176_724 Bus2=176_754 phases=3 Linecode=2c_.04 Length=6.776 Units=m
New Line.LINE176_754 Bus1=176_724 Bus2=176_755 phases=3 Linecode=2c_.04 Length=6.776 Units=m
New Line.LINE176_767 Bus1=176_738 Bus2=176_768 phases=3 Linecode=2c_.04 Length=4.7299 Units=m
New Line.LINE176_769 Bus1=176_740 Bus2=176_770 phases=3 Linecode=3c_300_ASN Length=0.18969 Units=m
New Line.LINE176_771 Bus1=176_742 Bus2=176_772 phases=3 Linecode=25_PSC Length=9.14 Units=m
New Line.LINE176_775 Bus1=176_745 Bus2=176_776 phases=3 Linecode=2c_.04 Length=5.8392 Units=m
New Line.LINE176_776 Bus1=176_745 Bus2=176_777 phases=3 Linecode=2c_.04 Length=5.8392 Units=m
New Line.LINE176_777 Bus1=176_745 Bus2=176_778 phases=3 Linecode=2c_.04 Length=5.9753 Units=m
New Line.LINE176_784 Bus1=176_753 Bus2=176_785 phases=3 Linecode=2c_.04 Length=4.3663 Units=m
New Line.LINE176_785 Bus1=176_753 Bus2=176_786 phases=3 Linecode=2c_.04 Length=4.3663 Units=m
New Line.LINE176_798 Bus1=176_768 Bus2=176_799 phases=3 Linecode=35_SAC_XC Length=5.1489 Units=m
New Line.LINE176_800 Bus1=176_770 Bus2=176_801 phases=3 Linecode=3c_300_ASN Length=30.5585 Units=m
New Line.LINE176_808 Bus1=176_778 Bus2=176_809 phases=3 Linecode=2c_.04 Length=6.8782 Units=m
New Line.LINE176_809 Bus1=176_778 Bus2=176_810 phases=3 Linecode=2c_.04 Length=6.8782 Units=m
New Line.LINE176_829 Bus1=176_801 Bus2=176_830 phases=3 Linecode=3c_300_ASN Length=0.18976 Units=m
New Line.LINE176_856 Bus1=176_830 Bus2=176_857 phases=3 Linecode=3c_300_ASN Length=0.12559 Units=m
New Line.LINE176_861 Bus1=176_835 Bus2=176_862 phases=3 Linecode=2c_.04 Length=6.6184 Units=m
New Line.LINE176_881 Bus1=176_857 Bus2=176_882 phases=3 Linecode=3c_300_ASN Length=0.157 Units=m
New Line.LINE176_886 Bus1=176_862 Bus2=176_887 phases=3 Linecode=2c_.04 Length=5.3031 Units=m
New Line.LINE176_907 Bus1=176_882 Bus2=176_908 phases=3 Linecode=3c_300_ASN Length=0.11853 Units=m
New Line.LINE176_913 Bus1=176_889 Bus2=176_914 phases=3 Linecode=2c_.04 Length=7.383 Units=m
New Line.LINE176_914 Bus1=176_889 Bus2=176_915 phases=3 Linecode=4c_.12 Length=7.296 Units=m
New Line.LINE176_918 Bus1=176_893 Bus2=176_919 phases=3 Linecode=2c_.04 Length=5.2271 Units=m
New Line.LINE176_929 Bus1=176_903 Bus2=176_930 phases=3 Linecode=2c_.04 Length=1.7277 Units=m
New Line.LINE176_930 Bus1=176_903 Bus2=176_931 phases=3 Linecode=2c_.04 Length=1.7277 Units=m
New Line.LINE176_934 Bus1=176_908 Bus2=176_935 phases=3 Linecode=3c_300_ASN Length=0.15148 Units=m
New Line.LINE176_942 Bus1=176_915 Bus2=176_943 phases=3 Linecode=4c_.12 Length=2.4783 Units=m
New Line.LINE176_962 Bus1=176_935 Bus2=176_963 phases=3 Linecode=3c_300_ASN Length=7.3865 Units=m
New Line.LINE176_969 Bus1=176_943 Bus2=176_970 phases=3 Linecode=2c_.04 Length=0.33051 Units=m
New Line.LINE176_979 Bus1=176_953 Bus2=176_980 phases=3 Linecode=2c_.04 Length=6.0623 Units=m
New Line.LINE176_990 Bus1=176_963 Bus2=176_991 phases=3 Linecode=3c_300_ASN Length=15.2834 Units=m
New Line.LINE176_995 Bus1=176_970 Bus2=176_996 phases=3 Linecode=2c_.04 Length=0.048105 Units=m
New Line.LINE176_1014 Bus1=176_991 Bus2=176_1015 phases=3 Linecode=3c_300_ASN Length=0.20635 Units=m
New Line.LINE176_1019 Bus1=176_996 Bus2=176_1020 phases=3 Linecode=2c_.04 Length=0.047539 Units=m
New Line.LINE176_1024 Bus1=176_1002 Bus2=176_1025 phases=3 Linecode=2c_.04 Length=4.2433 Units=m
New Line.LINE176_1038 Bus1=176_1015 Bus2=176_1039 phases=3 Linecode=3c_300_ASN Length=0.15882 Units=m
New Line.LINE176_1039 Bus1=176_1016 Bus2=176_1040 phases=3 Linecode=25_PSC Length=2.8833 Units=m
New Line.LINE176_1040 Bus1=176_1016 Bus2=176_1041 phases=3 Linecode=25_PSC Length=2.8833 Units=m
New Line.LINE176_1044 Bus1=176_1020 Bus2=176_1045 phases=3 Linecode=2c_.04 Length=0.080808 Units=m
New Line.LINE176_1048 Bus1=176_1023 Bus2=176_1049 phases=3 Linecode=2c_.04 Length=5.7298 Units=m
New Line.LINE176_1061 Bus1=176_1036 Bus2=176_1062 phases=3 Linecode=2c_.04 Length=3.2822 Units=m
New Line.LINE176_1065 Bus1=176_1039 Bus2=176_1066 phases=3 Linecode=3c_300_ASN Length=0.15262 Units=m
New Line.LINE176_1069 Bus1=176_1045 Bus2=176_1070 phases=3 Linecode=2c_.04 Length=0.12449 Units=m
New Line.LINE176_1074 Bus1=176_1050 Bus2=176_1075 phases=3 Linecode=2c_.04 Length=5.3231 Units=m
New Line.LINE176_1090 Bus1=176_1066 Bus2=176_1091 phases=3 Linecode=3c_300_ASN Length=16.9979 Units=m
New Line.LINE176_1093 Bus1=176_1069 Bus2=176_1094 phases=3 Linecode=2c_.04 Length=4.6484 Units=m
New Line.LINE176_1094 Bus1=176_1069 Bus2=176_1095 phases=3 Linecode=2c_.04 Length=4.6484 Units=m
New Line.LINE176_1095 Bus1=176_1070 Bus2=176_1096 phases=3 Linecode=2c_.04 Length=0.153 Units=m
New Line.LINE176_1104 Bus1=176_1080 Bus2=176_1105 phases=3 Linecode=2c_.04 Length=7.2047 Units=m
New Line.LINE176_1105 Bus1=176_1080 Bus2=176_1106 phases=3 Linecode=2c_.04 Length=7.2047 Units=m
New Line.LINE176_1116 Bus1=176_1091 Bus2=176_1117 phases=3 Linecode=3c_300_ASN Length=14.62 Units=m
New Line.LINE176_1119 Bus1=176_1096 Bus2=176_1120 phases=3 Linecode=2c_.04 Length=0.18732 Units=m
New Line.LINE176_1137 Bus1=176_1117 Bus2=176_1138 phases=3 Linecode=3c_300_ASN Length=0.22434 Units=m
New Line.LINE176_1140 Bus1=176_1120 Bus2=176_1141 phases=3 Linecode=2c_.04 Length=0.40468 Units=m
New Line.LINE176_1145 Bus1=176_1125 Bus2=176_1146 phases=3 Linecode=2c_.04 Length=5.5235 Units=m
New Line.LINE176_1158 Bus1=176_1138 Bus2=176_1159 phases=3 Linecode=3c_300_ASN Length=0.76184 Units=m
New Line.LINE176_1161 Bus1=176_1141 Bus2=176_1162 phases=3 Linecode=2c_.04 Length=0.52708 Units=m
New Line.LINE176_1165 Bus1=176_1144 Bus2=176_1166 phases=3 Linecode=2c_.04 Length=5.406 Units=m
New Line.LINE176_1178 Bus1=176_1159 Bus2=176_1179 phases=3 Linecode=3c_300_ASN Length=0.31064 Units=m
New Line.LINE176_1181 Bus1=176_1162 Bus2=176_1182 phases=3 Linecode=2c_.04 Length=1.1652 Units=m
New Line.LINE176_1198 Bus1=176_1179 Bus2=176_1199 phases=3 Linecode=3c_300_SAC_ASN Length=0.56922 Units=m
New Line.LINE176_1201 Bus1=176_1180 Bus2=176_1202 phases=3 Linecode=25_PSC Length=5.1711 Units=m
New Line.LINE176_1202 Bus1=176_1180 Bus2=176_1203 phases=3 Linecode=25_PSC Length=5.1711 Units=m
New Line.LINE176_1204 Bus1=176_1182 Bus2=176_1205 phases=3 Linecode=2c_.04 Length=1.0331 Units=m
New Line.LINE176_1218 Bus1=176_1195 Bus2=176_1219 phases=3 Linecode=25_SAC_XC Length=0.2619 Units=m
New Line.LINE176_1223 Bus1=176_1199 Bus2=176_1224 phases=3 Linecode=3c_300_SAC_ASN Length=0.43518 Units=m
New Line.LINE176_1226 Bus1=176_1205 Bus2=176_1227 phases=3 Linecode=2c_.04 Length=0.83069 Units=m
New Line.LINE176_1246 Bus1=176_1224 Bus2=176_1247 phases=3 Linecode=3c_300_SAC_ASN Length=0.69604 Units=m
New Line.LINE176_1249 Bus1=176_1227 Bus2=176_1250 phases=3 Linecode=2c_.04 Length=1.5592 Units=m
New Line.LINE176_1269 Bus1=176_1247 Bus2=176_1270 phases=3 Linecode=3c_300_SAC_ASN Length=1.3428 Units=m
New Line.LINE176_1272 Bus1=176_1250 Bus2=176_1273 phases=3 Linecode=2c_.04 Length=0.11498 Units=m
New Line.LINE176_1274 Bus1=176_1251 Bus2=176_1275 phases=3 Linecode=2c_.04 Length=5.5889 Units=m
New Line.LINE176_1280 Bus1=176_1256 Bus2=176_1281 phases=3 Linecode=4c_.12 Length=1.4779 Units=m
New Line.LINE176_1294 Bus1=176_1270 Bus2=176_1295 phases=3 Linecode=3c_300_SAC_ASN Length=0.23664 Units=m
New Line.LINE176_1297 Bus1=176_1273 Bus2=176_1298 phases=3 Linecode=2c_.04 Length=0.2489 Units=m
New Line.LINE176_1304 Bus1=176_1281 Bus2=176_1305 phases=3 Linecode=2c_.04 Length=27.336 Units=m
New Line.LINE176_1316 Bus1=176_1292 Bus2=176_1317 phases=3 Linecode=2c_.04 Length=5.9486 Units=m
New Line.LINE176_1317 Bus1=176_1292 Bus2=176_1318 phases=3 Linecode=2c_.04 Length=5.9486 Units=m
New Line.LINE176_1320 Bus1=176_1295 Bus2=176_1321 phases=3 Linecode=3c_300_SAC_ASN Length=0.18417 Units=m
New Line.LINE176_1323 Bus1=176_1298 Bus2=176_1324 phases=3 Linecode=2c_.04 Length=0.1472 Units=m
New Line.LINE176_1326 Bus1=176_1300 Bus2=176_1327 phases=3 Linecode=2c_.04 Length=5.4889 Units=m
New Line.LINE176_1329 Bus1=176_1302 Bus2=176_1330 phases=3 Linecode=2c_.04 Length=5.426 Units=m
New Line.LINE176_1348 Bus1=176_1321 Bus2=176_1349 phases=3 Linecode=3c_300_SAC_ASN Length=0.10434 Units=m
New Line.LINE176_1351 Bus1=176_1324 Bus2=176_1352 phases=3 Linecode=2c_.04 Length=0.17241 Units=m
New Line.LINE176_1374 Bus1=176_1349 Bus2=176_1375 phases=3 Linecode=3c_300_SAC_ASN Length=0.14446 Units=m
New Line.LINE176_1377 Bus1=176_1352 Bus2=176_1378 phases=3 Linecode=2c_.04 Length=0.11796 Units=m
New Line.LINE176_1381 Bus1=176_1355 Bus2=176_1382 phases=3 Linecode=2c_.04 Length=5.0273 Units=m
New Line.LINE176_1402 Bus1=176_1375 Bus2=176_1403 phases=3 Linecode=3c_300_SAC_ASN Length=0.15205 Units=m
New Line.LINE176_1405 Bus1=176_1378 Bus2=176_1406 phases=3 Linecode=2c_.04 Length=0.16269 Units=m
New Line.LINE176_1427 Bus1=176_1403 Bus2=176_1428 phases=3 Linecode=3c_300_SAC_ASN Length=0.10259 Units=m
New Line.LINE176_1429 Bus1=176_1406 Bus2=176_1430 phases=3 Linecode=2c_.04 Length=0.22401 Units=m
New Line.LINE176_1451 Bus1=176_1428 Bus2=176_1452 phases=3 Linecode=3c_300_SAC_ASN Length=0.2794 Units=m
New Line.LINE176_1453 Bus1=176_1430 Bus2=176_1454 phases=3 Linecode=2c_.04 Length=2.4706 Units=m
New Line.LINE176_1475 Bus1=176_1452 Bus2=176_1476 phases=3 Linecode=3c_300_SAC_ASN Length=0.30056 Units=m
New Line.LINE176_1477 Bus1=176_1454 Bus2=176_1478 phases=3 Linecode=2c_.04 Length=0.13547 Units=m
New Line.LINE176_1498 Bus1=176_1476 Bus2=176_1499 phases=3 Linecode=3c_300_SAC_ASN Length=0.23347 Units=m
New Line.LINE176_1500 Bus1=176_1478 Bus2=176_1501 phases=3 Linecode=2c_.04 Length=0.1781 Units=m
New Line.LINE176_1508 Bus1=176_1485 Bus2=176_1509 phases=3 Linecode=2c_.04 Length=5.2311 Units=m
New Line.LINE176_1510 Bus1=176_1486 Bus2=176_1511 phases=3 Linecode=2c_.04 Length=5.0582 Units=m
New Line.LINE176_1517 Bus1=176_1494 Bus2=176_1518 phases=3 Linecode=3c_.04 Length=4.6471 Units=m
New Line.LINE176_1523 Bus1=176_1499 Bus2=176_1524 phases=3 Linecode=3c_300_SAC_ASN Length=0.79338 Units=m
New Line.LINE176_1525 Bus1=176_1501 Bus2=176_1526 phases=3 Linecode=2c_.04 Length=0.074 Units=m
New Line.LINE176_1548 Bus1=176_1526 Bus2=176_1549 phases=3 Linecode=2c_.04 Length=0.13537 Units=m
New Line.LINE176_1554 Bus1=176_1532 Bus2=176_1555 phases=3 Linecode=3c_.04 Length=5.4685 Units=m
New Line.LINE176_1559 Bus1=176_1536 Bus2=176_1560 phases=3 Linecode=2c_.04 Length=13.6097 Units=m
New Line.LINE176_1572 Bus1=176_1549 Bus2=176_1573 phases=3 Linecode=2c_.04 Length=0.13193 Units=m
New Line.LINE176_1583 Bus1=176_1560 Bus2=176_1584 phases=3 Linecode=2c_.04 Length=3.7549 Units=m
New Line.LINE176_1587 Bus1=176_1564 Bus2=176_1588 phases=3 Linecode=3c_.04 Length=5.1975 Units=m
New Line.LINE176_1599 Bus1=176_1572 Bus2=176_1600 phases=3 Linecode=4c_.06 Length=4.4745 Units=m
New Line.LINE176_1601 Bus1=176_1573 Bus2=176_1602 phases=3 Linecode=2c_.04 Length=0.98308 Units=m
New Line.LINE176_1605 Bus1=176_1576 Bus2=176_1606 phases=3 Linecode=2c_.04 Length=5.4983 Units=m
New Line.LINE176_1615 Bus1=176_1586 Bus2=176_1616 phases=3 Linecode=2c_.04 Length=3.4404 Units=m
New Line.LINE176_1616 Bus1=176_1586 Bus2=176_1617 phases=3 Linecode=2c_.04 Length=3.4404 Units=m
New Line.LINE176_1628 Bus1=176_1600 Bus2=176_1629 phases=3 Linecode=2c_.04 Length=8.5353 Units=m
New Line.LINE176_1630 Bus1=176_1602 Bus2=176_1631 phases=3 Linecode=2c_.04 Length=5.6072 Units=m
New Line.LINE176_1640 Bus1=176_1613 Bus2=176_1641 phases=3 Linecode=4c_.12 Length=14.6731 Units=m
New Line.LINE176_1641 Bus1=176_1613 Bus2=176_1642 phases=3 Linecode=2c_.04 Length=4.818 Units=m
New Line.LINE176_1655 Bus1=176_1629 Bus2=176_1656 phases=3 Linecode=2c_.04 Length=0.20617 Units=m
New Line.LINE176_1666 Bus1=176_1641 Bus2=176_1667 phases=3 Linecode=4c_.12 Length=5.3149 Units=m
New Line.LINE176_1670 Bus1=176_1644 Bus2=176_1671 phases=3 Linecode=2c_.04 Length=6.7571 Units=m
New Line.LINE176_1671 Bus1=176_1644 Bus2=176_1672 phases=3 Linecode=2c_.04 Length=6.7571 Units=m
New Line.LINE176_1685 Bus1=176_1656 Bus2=176_1686 phases=3 Linecode=2c_.04 Length=0.16755 Units=m
New Line.LINE176_1696 Bus1=176_1667 Bus2=176_1697 phases=3 Linecode=4c_.12 Length=12.6644 Units=m
New Line.LINE176_1710 Bus1=176_1682 Bus2=176_1711 phases=3 Linecode=4c_.04 Length=15.9207 Units=m
New Line.LINE176_1714 Bus1=176_1686 Bus2=176_1715 phases=3 Linecode=2c_.04 Length=0.11847 Units=m
New Line.LINE176_1725 Bus1=176_1697 Bus2=176_1726 phases=3 Linecode=4c_.12 Length=1.6369 Units=m
New Line.LINE176_1744 Bus1=176_1715 Bus2=176_1745 phases=3 Linecode=2c_.04 Length=0.197 Units=m
New Line.LINE176_1754 Bus1=176_1726 Bus2=176_1755 phases=3 Linecode=2c_.04 Length=6.2145 Units=m
New Line.LINE176_1774 Bus1=176_1745 Bus2=176_1775 phases=3 Linecode=2c_.04 Length=0.4857 Units=m
New Line.LINE176_1784 Bus1=176_1755 Bus2=176_1785 phases=3 Linecode=2c_.04 Length=0.38354 Units=m
New Line.LINE176_1800 Bus1=176_1772 Bus2=176_1801 phases=3 Linecode=2c_.04 Length=13.287 Units=m
New Line.LINE176_1804 Bus1=176_1775 Bus2=176_1805 phases=3 Linecode=2c_.04 Length=4.2411 Units=m
New Line.LINE176_1814 Bus1=176_1785 Bus2=176_1815 phases=3 Linecode=2c_.04 Length=1.0282 Units=m
New Line.LINE176_1842 Bus1=176_1815 Bus2=176_1843 phases=3 Linecode=2c_.04 Length=6.6286 Units=m
New Line.LINE176_1844 Bus1=176_1817 Bus2=176_1845 phases=3 Linecode=2c_.04 Length=6.0535 Units=m
New Line.LINE176_1856 Bus1=176_1828 Bus2=176_1857 phases=3 Linecode=2c_.04 Length=3.3864 Units=m
New Line.LINE176_1861 Bus1=176_1833 Bus2=176_1862 phases=3 Linecode=25_SAC_XC Length=2.9817 Units=m
New Line.LINE176_1872 Bus1=176_1846 Bus2=176_1873 phases=3 Linecode=2c_.04 Length=4.5823 Units=m
New Line.LINE176_1884 Bus1=176_1858 Bus2=176_1885 phases=3 Linecode=2c_.04 Length=3.3143 Units=m
New Line.LINE176_1953 Bus1=176_1929 Bus2=176_1954 phases=3 Linecode=2c_.04 Length=4.8815 Units=m
New Line.LINE176_1964 Bus1=176_1939 Bus2=176_1965 phases=3 Linecode=4c_.04 Length=15.7986 Units=m
New Line.LINE176_1971 Bus1=176_1945 Bus2=176_1972 phases=3 Linecode=2c_.04 Length=5.2528 Units=m
New Line.LINE176_2004 Bus1=176_1979 Bus2=176_2005 phases=3 Linecode=2c_.04 Length=6.9645 Units=m
New Line.LINE176_2005 Bus1=176_1979 Bus2=176_2006 phases=3 Linecode=2c_.04 Length=6.9645 Units=m
New Line.LINE176_2019 Bus1=176_1993 Bus2=176_2020 phases=3 Linecode=4c_.06_AS Length=3.9922 Units=m
New Line.LINE176_2028 Bus1=176_1999 Bus2=176_2029 phases=3 Linecode=2c_.04 Length=1.5231 Units=m
New Line.LINE176_2030 Bus1=176_2000 Bus2=176_2031 phases=3 Linecode=2c_.04 Length=4.2797 Units=m
New Line.LINE176_2045 Bus1=176_2016 Bus2=176_2046 phases=3 Linecode=2c_.04 Length=4.9185 Units=m
New Line.LINE176_2049 Bus1=176_2020 Bus2=176_2050 phases=3 Linecode=4c_.06_AS Length=6.5997 Units=m
New Line.LINE176_2062 Bus1=176_2036 Bus2=176_2063 phases=3 Linecode=2c_.04 Length=5.5599 Units=m
New Line.LINE176_2076 Bus1=176_2050 Bus2=176_2077 phases=3 Linecode=4c_.06_AS Length=1.6756 Units=m
New Line.LINE176_2080 Bus1=176_2054 Bus2=176_2081 phases=3 Linecode=2c_.04 Length=5.9958 Units=m
New Line.LINE176_2099 Bus1=176_2072 Bus2=176_2100 phases=3 Linecode=2c_.04 Length=2.8356 Units=m
New Line.LINE176_2100 Bus1=176_2072 Bus2=176_2101 phases=3 Linecode=2c_.04 Length=2.8356 Units=m
New Line.LINE176_2102 Bus1=176_2075 Bus2=176_2103 phases=3 Linecode=2c_.04 Length=4.1821 Units=m
New Line.LINE176_2104 Bus1=176_2075 Bus2=176_2105 phases=3 Linecode=2c_.04 Length=3.4154 Units=m
New Line.LINE176_2105 Bus1=176_2076 Bus2=176_2106 phases=3 Linecode=2c_.04 Length=5.6823 Units=m
New Line.LINE176_2107 Bus1=176_2076 Bus2=176_2108 phases=3 Linecode=2c_.04 Length=3.2803 Units=m
New Line.LINE176_2108 Bus1=176_2077 Bus2=176_2109 phases=3 Linecode=4c_.06_AS Length=2.9723 Units=m
New Line.LINE176_2114 Bus1=176_2083 Bus2=176_2115 phases=3 Linecode=2c_.04 Length=5.3586 Units=m
New Line.LINE176_2125 Bus1=176_2094 Bus2=176_2126 phases=3 Linecode=2c_.04 Length=2.127 Units=m
New Line.LINE176_2126 Bus1=176_2094 Bus2=176_2127 phases=3 Linecode=2c_.04 Length=2.127 Units=m
New Line.LINE176_2130 Bus1=176_2097 Bus2=176_2131 phases=3 Linecode=2c_.04 Length=5.9404 Units=m
New Line.LINE176_2131 Bus1=176_2097 Bus2=176_2132 phases=3 Linecode=2c_.04 Length=5.9404 Units=m
New Line.LINE176_2132 Bus1=176_2097 Bus2=176_2133 phases=3 Linecode=2c_.04 Length=5.1705 Units=m
New Line.LINE176_2138 Bus1=176_2109 Bus2=176_2139 phases=3 Linecode=4c_.06_AS Length=1.7276 Units=m
New Line.LINE176_2152 Bus1=176_2125 Bus2=176_2153 phases=3 Linecode=4c_.12 Length=1.0181 Units=m
New Line.LINE176_2162 Bus1=176_2139 Bus2=176_2163 phases=3 Linecode=4c_.06_AS Length=2.313 Units=m
New Line.LINE176_2177 Bus1=176_2153 Bus2=176_2178 phases=3 Linecode=4c_.12 Length=1.1715 Units=m
New Line.LINE176_2180 Bus1=176_2156 Bus2=176_2181 phases=3 Linecode=2c_.04 Length=1.8232 Units=m
New Line.LINE176_2181 Bus1=176_2156 Bus2=176_2182 phases=3 Linecode=2c_.04 Length=1.8232 Units=m
New Line.LINE176_2188 Bus1=176_2163 Bus2=176_2189 phases=3 Linecode=4c_.06_AS Length=1.5303 Units=m
New Line.LINE176_2204 Bus1=176_2176 Bus2=176_2205 phases=3 Linecode=4c_.12 Length=0.49041 Units=m
New Line.LINE176_2207 Bus1=176_2178 Bus2=176_2208 phases=3 Linecode=4c_.12 Length=0.80665 Units=m
New Line.LINE176_2216 Bus1=176_2189 Bus2=176_2217 phases=3 Linecode=4c_.12 Length=1.2231 Units=m
New Line.LINE176_2234 Bus1=176_2205 Bus2=176_2235 phases=3 Linecode=2c_.04 Length=6.4036 Units=m
New Line.LINE176_2236 Bus1=176_2208 Bus2=176_2237 phases=3 Linecode=4c_.12 Length=0.19424 Units=m
New Line.LINE176_2244 Bus1=176_2217 Bus2=176_2245 phases=3 Linecode=4c_.12 Length=1.5398 Units=m
New Line.LINE176_2253 Bus1=176_2226 Bus2=176_2254 phases=3 Linecode=2c_.04 Length=6.359 Units=m
New Line.LINE176_2254 Bus1=176_2226 Bus2=176_2255 phases=3 Linecode=2c_.04 Length=10.9871 Units=m
New Line.LINE176_2260 Bus1=176_2233 Bus2=176_2261 phases=3 Linecode=2c_.04 Length=6.2 Units=m
New Line.LINE176_2263 Bus1=176_2235 Bus2=176_2264 phases=3 Linecode=2c_.04 Length=9.6511 Units=m
New Line.LINE176_2265 Bus1=176_2237 Bus2=176_2266 phases=3 Linecode=4c_.12 Length=0.15338 Units=m
New Line.LINE176_2273 Bus1=176_2245 Bus2=176_2274 phases=3 Linecode=4c_.12 Length=1.4902 Units=m
New Line.LINE176_2290 Bus1=176_2264 Bus2=176_2291 phases=3 Linecode=2c_.04 Length=4.6365 Units=m
New Line.LINE176_2293 Bus1=176_2266 Bus2=176_2294 phases=3 Linecode=4c_.12 Length=0.20181 Units=m
New Line.LINE176_2323 Bus1=176_2294 Bus2=176_2324 phases=3 Linecode=4c_.12 Length=0.19949 Units=m
New Line.LINE176_2353 Bus1=176_2324 Bus2=176_2354 phases=3 Linecode=4c_.12 Length=0.18311 Units=m