New Line.LINE176_104 Bus1=176_102 Bus2=176_105 phases=3 Linecode=4c_.12 Length=1.939 Units=m
New Line.LINE176_110 Bus1=176_105 Bus2=176_111 phases=3 Linecode=4c_.12 Length=1.6398 Units=m
New Line.LINE176_116 Bus1=176_111 Bus2=176_117 phases=3 Linecode=2c_.04 Length=6.8256 Units=m
New Line.LINE176_123 Bus1=176_117 Bus2=176_124 phases=3 Linecode=2c_.04 Length=4.4985 Units=m
New Line.LINE176_133 Bus1=176_127 Bus2=176_134 phases=3 Linecode=2c_.04 Length=8.8692 Units=m
New Line.LINE176_141 Bus1=176_134 Bus2=176_142 phases=3 Linecode=2c_.04 Length=5.0849 Units=m
New Line.LINE176_203 Bus1=176_194 Bus2=176_204 phases=3 Linecode=2c_.04 Length=8.3069 Units=m
New Line.LINE176_206 Bus1=176_196 Bus2=176_207 phases=3 Linecode=2c_.04 Length=7.333 Units=m
New Line.LINE176_215 Bus1=176_204 Bus2=176_216 phases=3 Linecode=2c_.04 Length=3.7623 Units=m
New Line.LINE176_219 Bus1=176_207 Bus2=176_220 phases=3 Linecode=2c_.04 Length=4.0687 Units=m
New Line.LINE176_232 Bus1=176_218 Bus2=176_233 phases=3 Linecode=4c_.12 Length=4.1005 Units=m
New Line.LINE176_306 Bus1=176_288 Bus2=176_307 phases=3 Linecode=2c_.04 Length=5.4459 Units=m
New Line.LINE176_322 Bus1=176_301 Bus2=176_323 phases=3 Linecode=2c_.04 Length=7.9363 Units=m
New Line.LINE176_344 Bus1=176_323 Bus2=176_345 phases=3 Linecode=2c_.04 Length=4.8547 Units=m
New Line.LINE176_400 Bus1=176_382 Bus2=176_401 phases=3 Linecode=2c_.04 Length=4.3632 Units=m
New Line.LINE176_409 Bus1=176_389 Bus2=176_410 phases=3 Linecode=2c_.04 Length=6.0619 Units=m
New Line.LINE176_439 Bus1=176_415 Bus2=176_440 phases=3 Linecode=2c_.04 Length=4.9893 Units=m
New Line.LINE176_440 Bus1=176_415 Bus2=176_441 phases=3 Linecode=2c_.04 Length=4.9893 Units=m
New Line.LINE176_482 Bus1=176_457 Bus2=176_483 phases=3 Linecode=2c_.04 Length=6.1533 Units=m
New Line.LINE176_511 Bus1=176_483 Bus2=176_512 phases=3 Linecode=2c_.04 Length=5.0943 Units=m
New Line.LINE176_574 Bus1=176_547 Bus2=176_575 phases=3 Linecode=2c_.04 Length=2.344 Units=m
New Line.LINE176_575 Bus1=176_547 Bus2=176_576 phases=3 Linecode=2c_.04 Length=2.344 Units=m
New Line.LINE176_576 Bus1=176_548 Bus2=176_577 phases=3 Linecode=2c_.04 Length=6.3346 Units=m
New Line.LINE176_578 Bus1=176_549 Bus2=176_579 phases=3 Linecode=2c_.04 Length=5.3837 Units=m
New Line.LINE176_601 Bus1=176_568 Bus2=176_602 phases=3 Linecode=2c_.04 Length=5.3316 Units=m
New Line.LINE176_683 Bus1=176_654 Bus2=176_684 phases=3 Linecode=2c_.04 Length=6.5306 Units=m
New Line.LINE176_713 Bus1=176_684 Bus2=176_714 phases=3 Linecode=2c_.04 Length=3.832 Units=m
New Line.LINE176_720 Bus1=176_691 Bus2=176_721 phases=3 Linecode=2c_.04 Length=8.4976 Units=m
New Line.LINE176_752 Bus1=176_724 Bus2=176_753 phases=3 Linecode=2c_.04 Length=5.8887 Units=m
New Line.LINE176_753 Bus1=176_724 Bus2=176_754 phases=3 Linecode=2c_.04 Length=6.776 Units=m
New Line.LINE176_754 Bus1=176_724 Bus2=176_755 phases=3 Linecode=2c_.04 Length=6.776 Units=m
New Line.LINE176_771 Bus1=176_742 Bus2=176_772 phases=3 Linecode=25_PSC Length=9.14 Units=m
New Line.LINE176_775 Bus1=176_745 Bus2=176_776 phases=3 Linecode=2c_.04 Length=5.8392 Units=m
New Line.LINE176_776 Bus1=176_745 Bus2=176_777 phases=3 Linecode=2c_.04 Length=5.8392 Units=m
New Line.LINE176_777 Bus1=176_745 Bus2=176_778 phases=3 Linecode=2c_.04 Length=5.9753 Units=m
New Line.LINE176_784 Bus1=176_753 Bus2=176_785 phases=3 Linecode=2c_.04 Length=4.3663 Units=m
New Line.LINE176_785 Bus1=176_753 Bus2=176_786 phases=3 Linecode=2c_.04 Length=4.3663 Units=m
New Line.LINE176_798 Bus1=176_768 Bus2=176_799 phases=3 Linecode=35_SAC_XC Length=5.1489 Units=m
New Line.LINE176_808 Bus1=176_778 Bus2=176_809 phases=3 Linecode=2c_.04 Length=6.8782 Units=m
New Line.LINE176_809 Bus1=176_778 Bus2=176_810 phases=3 Linecode=2c_.04 Length=6.8782 Units=m
New Line.LINE176_861 Bus1=176_835 Bus2=176_862 phases=3 Linecode=2c_.04 Length=6.6184 Units=m
New Line.LINE176_886 Bus1=176_862 Bus2=176_887 phases=3 Linecode=2c_.04 Length=5.3031 Units=m
New Line.LINE176_913 Bus1=176_889 Bus2=176_914 phases=3 Linecode=2c_.04 Length=7.383 Units=m
New Line.LINE176_918 Bus1=176_893 Bus2=176_919 phases=3 Linecode=2c_.04 Length=5.2271 Units=m
New Line.LINE176_929 Bus1=176_903 Bus2=176_930 phases=3 Linecode=2c_.04 Length=1.7277 Units=m
New Line.LINE176_930 Bus1=176_903 Bus2=176_931 phases=3 Linecode=2c_.04 Length=1.7277 Units=m
New Line.LINE176_979 Bus1=176_953 Bus2=176_980 phases=3 Linecode=2c_.04 Length=6.0623 Units=m
New Line.LINE176_1024 Bus1=176_1002 Bus2=176_1025 phases=3 Linecode=2c_.04 Length=4.2433 Units=m
New Line.LINE176_1039 Bus1=176_1016 Bus2=176_1040 phases=3 Linecode=25_PSC Length=2.8833 Units=m
New Line.LINE176_1040 Bus1=176_1016 Bus2=176_1041 phases=3 Linecode=25_PSC Length=2.8833 Units=m
New Line.LINE176_1048 Bus1=176_1023 Bus2=176_1049 phases=3 Linecode=2c_.04 Length=5.7298 Units=m
New Line.LINE176_1061 Bus1=176_1036 Bus2=176_1062 phases=3 Linecode=2c_.04 Length=3.2822 Units=m
New Line.LINE176_1074 Bus1=176_1050 Bus2=176_1075 phases=3 Linecode=2c_.04 Length=5.3231 Units=m
New Line.LINE176_1093 Bus1=176_1069 Bus2=176_1094 phases=3 Linecode=2c_.04 Length=4.6484 Units=m
New Line.LINE176_1094 Bus1=176_1069 Bus2=176_1095 phases=3 Linecode=2c_.04 Length=4.6484 Units=m
New Line.LINE176_1104 Bus1=176_1080 Bus2=176_1105 phases=3 Linecode=2c_.04 Length=7.2047 Units=m
New Line.LINE176_1105 Bus1=176_1080 Bus2=176_1106 phases=3 Linecode=2c_.04 Length=7.2047 Units=m
New Line.LINE176_1145 Bus1=176_1125 Bus2=176_1146 phases=3 Linecode=2c_.04 Length=5.5235 Units=m
New Line.LINE176_1165 Bus1=176_1144 Bus2=176_1166 phases=3 Linecode=2c_.04 Length=5.406 Units=m
New Line.LINE176_1201 Bus1=176_1180 Bus2=176_1202 phases=3 Linecode=25_PSC Length=5.1711 Units=m
New Line.LINE176_1202 Bus1=176_1180 Bus2=176_1203 phases=3 Linecode=25_PSC Length=5.1711 Units=m
New Line.LINE176_1218 Bus1=176_1195 Bus2=176_1219 phases=3 Linecode=25_SAC_XC Length=0.2619 Units=m
New Line.LINE176_1274 Bus1=176_1251 Bus2=176_1275 phases=3 Linecode=2c_.04 Length=5.5889 Units=m
New Line.LINE176_1280 Bus1=176_1256 Bus2=176_1281 phases=3 Linecode=4c_.12 Length=1.4779 Units=m
New Line.LINE176_1304 Bus1=176_1281 Bus2=176_1305 phases=3 Linecode=2c_.04 Length=27.336 Units=m
New Line.LINE176_1316 Bus1=176_1292 Bus2=176_1317 phases=3 Linecode=2c_.04 Length=5.9486 Units=m
New Line.LINE176_1317 Bus1=176_1292 Bus2=176_1318 phases=3 Linecode=2c_.04 Length=5.9486 Units=m
New Line.LINE176_1326 Bus1=176_1300 Bus2=176_1327 phases=3 Linecode=2c_.04 Length=5.4889 Units=m
New Line.LINE176_1329 Bus1=176_1302 Bus2=176_1330 phases=3 Linecode=2c_.04 Length=5.426 Units=m
New Line.LINE176_1381 Bus1=176_1355 Bus2=176_1382 phases=3 Linecode=2c_.04 Length=5.0273 Units=m
New Line.LINE176_1508 Bus1=176_1485 Bus2=176_1509 phases=3 Linecode=2c_.04 Length=5.2311 Units=m
New Line.LINE176_1510 Bus1=176_1486 Bus2=176_1511 phases=3 Linecode=2c_.04 Length=5.0582 Units=m
New Line.LINE176_1517 Bus1=176_1494 Bus2=176_1518 phases=3 Linecode=3c_.04 Length=4.6471 Units=m
New Line.LINE176_1554 Bus1=176_1532 Bus2=176_1555 phases=3 Linecode=3c_.04 Length=5.4685 Units=m
New Line.LINE176_1559 Bus1=176_1536 Bus2=176_1560 phases=3 Linecode=2c_.04 Length=13.6097 Units=m
New Line.LINE176_1583 Bus1=176_1560 Bus2=176_1584 phases=3 Linecode=2c_.04 Length=3.7549 Units=m
New Line.LINE176_1587 Bus1=176_1564 Bus2=176_1588 phases=3 Linecode=3c_.04 Length=5.1975 Units=m
New Line.LINE176_1599 Bus1=176_1572 Bus2=176_1600 phases=3 Linecode=4c_.06 Length=4.4745 Units=m
New Line.LINE176_1605 Bus1=176_1576 Bus2=176_1606 phases=3 Linecode=2c_.04 Length=5.4983 Units=m
New Line.LINE176_1615 Bus1=176_1586 Bus2=176_1616 phases=3 Linecode=2c_.04 Length=3.4404 Units=m
New Line.LINE176_1616 Bus1=176_1586 Bus2=176_1617 phases=3 Linecode=2c_.04 Length=3.4404 Units=m
New Line.LINE176_1641 Bus1=176_1613 Bus2=176_1642 phases=3 Linecode=2c_.04 Length=4.818 Units=m
New Line.LINE176_1670 Bus1=176_1644 Bus2=176_1671 phases=3 Linecode=2c_.04 Length=6.7571 Units=m
New Line.LINE176_1671 Bus1=176_1644 Bus2=176_1672 phases=3 Linecode=2c_.04 Length=6.7571 Units=m
New Line.LINE176_1710 Bus1=176_1682 Bus2=176_1711 phases=3 Linecode=4c_.04 Length=15.9207 Units=m
New Line.LINE176_1800 Bus1=176_1772 Bus2=176_1801 phases=3 Linecode=2c_.04 Length=13.287 Units=m
New Line.LINE176_1804 Bus1=176_1775 Bus2=176_1805 phases=3 Linecode=2c_.04 Length=4.2411 Units=m
New Line.LINE176_1844 Bus1=176_1817 Bus2=176_1845 phases=3 Linecode=2c_.04 Length=6.0535 Units=m
New Line.LINE176_1856 Bus1=176_1828 Bus2=176_1857 phases=3 Linecode=2c_.04 Length=3.3864 Units=m
New Line.LINE176_1861 Bus1=176_1833 Bus2=176_1862 phases=3 Linecode=25_SAC_XC Length=2.9817 Units=m
New Line.LINE176_1872 Bus1=176_1846 Bus2=176_1873 phases=3 Linecode=2c_.04 Length=4.5823 Units=m
New Line.LINE176_1884 Bus1=176_1858 Bus2=176_1885 phases=3 Linecode=2c_.04 Length=3.3143 Units=m
New Line.LINE176_1953 Bus1=176_1929 Bus2=176_1954 phases=3 Linecode=2c_.04 Length=4.8815 Units=m
New Line.LINE176_1964 Bus1=176_1939 Bus2=176_1965 phases=3 Linecode=4c_.04 Length=15.7986 Units=m
New Line.LINE176_1971 Bus1=176_1945 Bus2=176_1972 phases=3 Linecode=2c_.04 Length=5.2528 Units=m
New Line.LINE176_2004 Bus1=176_1979 Bus2=176_2005 phases=3 Linecode=2c_.04 Length=6.9645 Units=m
New Line.LINE176_2005 Bus1=176_1979 Bus2=176_2006 phases=3 Linecode=2c_.04 Length=6.9645 Units=m
New Line.LINE176_2028 Bus1=176_1999 Bus2=176_2029 phases=3 Linecode=2c_.04 Length=1.5231 Units=m
New Line.LINE176_2030 Bus1=176_2000 Bus2=176_2031 phases=3 Linecode=2c_.04 Length=4.2797 Units=m
New Line.LINE176_2045 Bus1=176_2016 Bus2=176_2046 phases=3 Linecode=2c_.04 Length=4.9185 Units=m
New Line.LINE176_2062 Bus1=176_2036 Bus2=176_2063 phases=3 Linecode=2c_.04 Length=5.5599 Units=m
New Line.LINE176_2080 Bus1=176_2054 Bus2=176_2081 phases=3 Linecode=2c_.04 Length=5.9958 Units=m
New Line.LINE176_2099 Bus1=176_2072 Bus2=176_2100 phases=3 Linecode=2c_.04 Length=2.8356 Units=m
New Line.LINE176_2100 Bus1=176_2072 Bus2=176_2101 phases=3 Linecode=2c_.04 Length=2.8356 Units=m
New Line.LINE176_2102 Bus1=176_2075 Bus2=176_2103 phases=3 Linecode=2c_.04 Length=4.1821 Units=m
New Line.LINE176_2104 Bus1=176_2075 Bus2=176_2105 phases=3 Linecode=2c_.04 Length=3.4154 Units=m
New Line.LINE176_2105 Bus1=176_2076 Bus2=176_2106 phases=3 Linecode=2c_.04 Length=5.6823 Units=m
New Line.LINE176_2107 Bus1=176_2076 Bus2=176_2108 phases=3 Linecode=2c_.04 Length=3.2803 Units=m
New Line.LINE176_2114 Bus1=176_2083 Bus2=176_2115 phases=3 Linecode=2c_.04 Length=5.3586 Units=m
New Line.LINE176_2125 Bus1=176_2094 Bus2=176_2126 phases=3 Linecode=2c_.04 Length=2.127 Units=m
New Line.LINE176_2126 Bus1=176_2094 Bus2=176_2127 phases=3 Linecode=2c_.04 Length=2.127 Units=m
New Line.LINE176_2130 Bus1=176_2097 Bus2=176_2131 phases=3 Linecode=2c_.04 Length=5.9404 Units=m
New Line.LINE176_2131 Bus1=176_2097 Bus2=176_2132 phases=3 Linecode=2c_.04 Length=5.9404 Units=m
New Line.LINE176_2132 Bus1=176_2097 Bus2=176_2133 phases=3 Linecode=2c_.04 Length=5.1705 Units=m
New Line.LINE176_2180 Bus1=176_2156 Bus2=176_2181 phases=3 Linecode=2c_.04 Length=1.8232 Units=m
New Line.LINE176_2181 Bus1=176_2156 Bus2=176_2182 phases=3 Linecode=2c_.04 Length=1.8232 Units=m
New Line.LINE176_2204 Bus1=176_2176 Bus2=176_2205 phases=3 Linecode=4c_.12 Length=0.49041 Units=m
New Line.LINE176_2253 Bus1=176_2226 Bus2=176_2254 phases=3 Linecode=2c_.04 Length=6.359 Units=m
New Line.LINE176_2254 Bus1=176_2226 Bus2=176_2255 phases=3 Linecode=2c_.04 Length=10.9871 Units=m
New Line.LINE176_2260 Bus1=176_2233 Bus2=176_2261 phases=3 Linecode=2c_.04 Length=6.2 Units=m
New Line.LINE176_2290 Bus1=176_2264 Bus2=176_2291 phases=3 Linecode=2c_.04 Length=4.6365 Units=m
New Line.LINE176_2369 Bus1=176_2340 Bus2=176_2370 phases=3 Linecode=2c_.04 Length=4.3942 Units=m
New Line.LINE176_2370 Bus1=176_2340 Bus2=176_2371 phases=3 Linecode=2c_.04 Length=4.3942 Units=m
New Line.LINE176_2378 Bus1=176_2347 Bus2=176_2379 phases=3 Linecode=4c_.12 Length=1.4823 Units=m
New Line.LINE176_2391 Bus1=176_2361 Bus2=176_2392 phases=3 Linecode=2c_.04 Length=5.2733 Units=m
New Line.LINE176_2392 Bus1=176_2361 Bus2=176_2393 phases=3 Linecode=2c_.04 Length=5.2733 Units=m
New Line.LINE176_2401 Bus1=176_2372 Bus2=176_2402 phases=3 Linecode=2c_.04 Length=4.9174 Units=m
New Line.LINE176_2402 Bus1=176_2372 Bus2=176_2403 phases=3 Linecode=2c_.04 Length=4.9174 Units=m
New Line.LINE176_2429 Bus1=176_2399 Bus2=176_2430 phases=3 Linecode=2c_.04 Length=7.7507 Units=m
New Line.LINE176_2430 Bus1=176_2399 Bus2=176_2431 phases=3 Linecode=2c_.04 Length=7.7507 Units=m
New Line.LINE176_2434 Bus1=176_2404 Bus2=176_2435 phases=3 Linecode=2c_.04 Length=3.291 Units=m
New Line.LINE176_2460 Bus1=176_2429 Bus2=176_2461 phases=3 Linecode=2c_.04 Length=4.3531 Units=m
New Line.LINE176_2481 Bus1=176_2454 Bus2=176_2482 phases=3 Linecode=2c_.04 Length=5.3488 Units=m
New Line.LINE176_2483 Bus1=176_2454 Bus2=176_2484 phases=3 Linecode=2c_.04 Length=2.23 Units=m
New Line.LINE176_2484 Bus1=176_2454 Bus2=176_2485 phases=3 Linecode=2c_.04 Length=2.23 Units=m
New Line.LINE176_2495 Bus1=176_2467 Bus2=176_2496 phases=3 Linecode=2c_.04 Length=5.6374 Units=m
New Line.LINE176_2499 Bus1=176_2470 Bus2=176_2500 phases=3 Linecode=4c_.12 Length=3.7383 Units=m
New Line.LINE176_2527 Bus1=176_2500 Bus2=176_2528 phases=3 Linecode=4c_.12 Length=5.8805 Units=m
New Line.LINE176_2549 Bus1=176_2524 Bus2=176_2550 phases=3 Linecode=2c_.04 Length=4.7616 Units=m
New Line.LINE176_2557 Bus1=176_2528 Bus2=176_2558 phases=3 Linecode=2c_.04 Length=8.0228 Units=m
New Line.LINE176_2574 Bus1=176_2546 Bus2=176_2575 phases=3 Linecode=2c_.04 Length=7.6576 Units=m
New Line.LINE176_2575 Bus1=176_2546 Bus2=176_2576 phases=3 Linecode=2c_.04 Length=7.6576 Units=m
New Line.LINE176_2576 Bus1=176_2546 Bus2=176_2577 phases=3 Linecode=2c_.04 Length=5.4913 Units=m
New Line.LINE176_2586 Bus1=176_2558 Bus2=176_2587 phases=3 Linecode=2c_.04 Length=4.6801 Units=m
New Line.LINE176_2593 Bus1=176_2561 Bus2=176_2594 phases=3 Linecode=2c_.04 Length=7.7967 Units=m
New Line.LINE176_2598 Bus1=176_2566 Bus2=176_2599 phases=3 Linecode=2c_.04 Length=5.34 Units=m
New Line.LINE176_2599 Bus1=176_2566 Bus2=176_2600 phases=3 Linecode=2c_.04 Length=5.8513 Units=m
New Line.LINE176_2608 Bus1=176_2577 Bus2=176_2609 phases=3 Linecode=2c_.04 Length=2.6735 Units=m
New Line.LINE176_2609 Bus1=176_2577 Bus2=176_2610 phases=3 Linecode=2c_.04 Length=2.6735 Units=m
New Line.LINE176_2639 Bus1=176_2607 Bus2=176_2640 phases=3 Linecode=2c_.04 Length=5.6815 Units=m
New Line.LINE176_2641 Bus1=176_2607 Bus2=176_2642 phases=3 Linecode=2c_.04 Length=4.9025 Units=m
New Line.LINE176_2675 Bus1=176_2643 Bus2=176_2676 phases=3 Linecode=2c_.04 Length=5.5992 Units=m
New Line.LINE176_2690 Bus1=176_2657 Bus2=176_2691 phases=3 Linecode=4c_.12 Length=2.3789 Units=m
New Line.LINE176_2722 Bus1=176_2691 Bus2=176_2723 phases=3 Linecode=2c_.04 Length=8.0942 Units=m
New Line.LINE176_2731 Bus1=176_2699 Bus2=176_2732 phases=3 Linecode=2c_.04 Length=6.117 Units=m
New Line.LINE176_2755 Bus1=176_2723 Bus2=176_2756 phases=3 Linecode=2c_.04 Length=4.6922 Units=m
New Line.LINE176_2857 Bus1=176_2824 Bus2=176_2858 phases=3 Linecode=2c_.04 Length=5.4847 Units=m
New Line.LINE176_2871 Bus1=176_2837 Bus2=176_2872 phases=3 Linecode=2c_.04 Length=3.7931 Units=m
New Line.LINE176_2872 Bus1=176_2837 Bus2=176_2873 phases=3 Linecode=2c_.04 Length=4.7682 Units=m
New Line.LINE176_2880 Bus1=176_2844 Bus2=176_2881 phases=3 Linecode=2c_.04 Length=4.2463 Units=m
New Line.LINE176_2882 Bus1=176_2845 Bus2=176_2883 phases=3 Linecode=2c_.04 Length=0.82818 Units=m
New Line.LINE176_2900 Bus1=176_2865 Bus2=176_2901 phases=3 Linecode=2c_.04 Length=5.6944 Units=m
New Line.LINE176_2901 Bus1=176_2865 Bus2=176_2902 phases=3 Linecode=2c_.04 Length=5.6944 Units=m
New Line.LINE176_2918 Bus1=176_2889 Bus2=176_2919 phases=3 Linecode=2c_.04 Length=5.5507 Units=m
New Line.LINE176_2919 Bus1=176_2889 Bus2=176_2920 phases=3 Linecode=2c_.04 Length=7.4047 Units=m
New Line.LINE176_2923 Bus1=176_2894 Bus2=176_2924 phases=3 Linecode=2c_.04 Length=5.426 Units=m
New Line.LINE176_2924 Bus1=176_2894 Bus2=176_2925 phases=3 Linecode=2c_.04 Length=5.426 Units=m
New Line.LINE176_2934 Bus1=176_2903 Bus2=176_2935 phases=3 Linecode=2c_.04 Length=2.5029 Units=m
New Line.LINE176_2935 Bus1=176_2903 Bus2=176_2936 phases=3 Linecode=2c_.04 Length=2.5029 Units=m
New Line.LINE176_2950 Bus1=176_2919 Bus2=176_2951 phases=3 Linecode=2c_.04 Length=3.2359 Units=m
New Line.LINE176_2952 Bus1=176_2920 Bus2=176_2953 phases=3 Linecode=2c_.04 Length=2.4114 Units=m
New Line.LINE176_3022 Bus1=176_2997 Bus2=176_3023 phases=3 Linecode=2c_.04 Length=5.1073 Units=m
New Line.LINE176_3023 Bus1=176_2997 Bus2=176_3024 phases=3 Linecode=2c_.04 Length=3.913 Units=m
New Line.LINE176_3038 Bus1=176_3011 Bus2=176_3039 phases=3 Linecode=2c_.04 Length=6.503 Units=m
New Line.LINE176_3039 Bus1=176_3011 Bus2=176_3040 phases=3 Linecode=2c_.04 Length=6.503 Units=m
New Line.LINE176_3090 Bus1=176_3066 Bus2=176_3091 phases=3 Linecode=2c_.04 Length=4.9887 Units=m
New Line.LINE176_3105 Bus1=176_3079 Bus2=176_3106 phases=3 Linecode=2c_.04 Length=4.8399 Units=m
New Line.LINE176_3165 Bus1=176_3144 Bus2=176_3166 phases=3 Linecode=2c_.04 Length=3.5481 Units=m
New Line.LINE176_3197 Bus1=176_3176 Bus2=176_3198 phases=3 Linecode=2c_.04 Length=5.3879 Units=m
New Line.LINE176_3198 Bus1=176_3176 Bus2=176_3199 phases=3 Linecode=2c_.04 Length=9.4216 Units=m
New Line.LINE176_3199 Bus1=176_3176 Bus2=176_3200 phases=3 Linecode=2c_.04 Length=9.4216 Units=m
New Line.LINE176_3224 Bus1=176_3203 Bus2=176_3225 phases=3 Linecode=2c_.04 Length=3.2224 Units=m
New Line.LINE176_3225 Bus1=176_3203 Bus2=176_3226 phases=3 Linecode=2c_.04 Length=3.2224 Units=m
New Line.LINE176_3245 Bus1=176_3223 Bus2=176_3246 phases=3 Linecode=2c_.04 Length=2.0777 Units=m
New Line.LINE176_3246 Bus1=176_3223 Bus2=176_3247 phases=3 Linecode=2c_.04 Length=2.0777 Units=m
New Line.LINE176_3247 Bus1=176_3223 Bus2=176_3248 phases=3 Linecode=2c_.04 Length=2.9182 Units=m
New Line.LINE176_3248 Bus1=176_3224 Bus2=176_3249 phases=3 Linecode=2c_.04 Length=7.6826 Units=m
New Line.LINE176_3249 Bus1=176_3224 Bus2=176_3250 phases=3 Linecode=2c_.04 Length=7.6826 Units=m
New Line.LINE176_3313 Bus1=176_3292 Bus2=176_3314 phases=3 Linecode=2c_.04 Length=4.0645 Units=m
New Line.LINE176_3334 Bus1=176_3313 Bus2=176_3335 phases=3 Linecode=2c_.04 Length=3.1924 Units=m
New Line.LINE176_3338 Bus1=176_3317 Bus2=176_3339 phases=3 Linecode=2c_.04 Length=3.2603 Units=m
New Line.LINE176_3339 Bus1=176_3317 Bus2=176_3340 phases=3 Linecode=2c_.04 Length=3.2603 Units=m
New Line.LINE176_3360 Bus1=176_3338 Bus2=176_3361 phases=3 Linecode=2c_.04 Length=6.0606 Units=m
New Line.LINE176_3361 Bus1=176_3338 Bus2=176_3362 phases=3 Linecode=2c_.04 Length=6.0606 Units=m
New Line.LINE176_3406 Bus1=176_3388 Bus2=176_3407 phases=3 Linecode=2c_.04 Length=3.7217 Units=m
New Line.LINE176_3416 Bus1=176_3397 Bus2=176_3417 phases=3 Linecode=2c_.04 Length=3.7138 Units=m
New Line.LINE176_3444 Bus1=176_3428 Bus2=176_3445 phases=3 Linecode=2c_.04 Length=3.9934 Units=m
New Line.LINE176_3478 Bus1=176_3464 Bus2=176_3479 phases=3 Linecode=2c_.04 Length=5.744 Units=m
New Line.LINE176_3506 Bus1=176_3493 Bus2=176_3507 phases=3 Linecode=2c_.04 Length=5.2781 Units=m
New Line.LINE176_3530 Bus1=176_3516 Bus2=176_3531 phases=3 Linecode=2c_.04 Length=5.2443 Units=m
New Line.LINE176_3534 Bus1=176_3519 Bus2=176_3535 phases=3 Linecode=3c_.04 Length=2.6662 Units=m
New Line.LINE176_3563 Bus1=176_3549 Bus2=176_3564 phases=3 Linecode=2c_.04 Length=3.7717 Units=m
New Line.LINE176_3564 Bus1=176_3549 Bus2=176_3565 phases=3 Linecode=2c_.04 Length=3.7717 Units=m
New Line.LINE176_3575 Bus1=176_3561 Bus2=176_3576 phases=3 Linecode=2c_.04 Length=2.1006 Units=m
New Line.LINE176_3576 Bus1=176_3561 Bus2=176_3577 phases=3 Linecode=2c_.04 Length=1.9674 Units=m
New Line.LINE176_3577 Bus1=176_3562 Bus2=176_3578 phases=3 Linecode=2c_.04 Length=7.1845 Units=m
New Line.LINE176_3578 Bus1=176_3562 Bus2=176_3579 phases=3 Linecode=2c_.04 Length=7.1845 Units=m
New Line.LINE176_3658 Bus1=176_3652 Bus2=176_3659 phases=3 Linecode=2c_.04 Length=3.8093 Units=m
New Line.LINE176_3659 Bus1=176_3652 Bus2=176_3660 phases=3 Linecode=2c_.04 Length=3.8093 Units=m
New Line.LINE176_3665 Bus1=176_3658 Bus2=176_3666 phases=3 Linecode=2c_.04 Length=3.3176 Units=m
New Line.LINE176_3749 Bus1=176_3747 Bus2=176_3750 phases=3 Linecode=2c_.04 Length=7.0351 Units=m
New Line.LINE176_3750 Bus1=176_3747 Bus2=176_3751 phases=3 Linecode=2c_.04 Length=7.0351 Units=m
New Line.LINE176_3753 Bus1=176_3749 Bus2=176_3754 phases=3 Linecode=2c_.04 Length=3.9431 Units=m
New Line.LINE176_3754 Bus1=176_3749 Bus2=176_3755 phases=3 Linecode=2c_.04 Length=3.9431 Units=m
New Line.LINE176_3831 Bus1=176_3829 Bus2=176_3832 phases=3 Linecode=2c_.04 Length=3.3188 Units=m
New Line.LINE176_Cmpd_0 Bus1=176_117 Bus2=176_288 phases=3 Linecode=2c_.04 Length=6.215581 Units=m
New Line.LINE176_Cmpd_1 Bus1=176_2558 Bus2=176_3138 phases=3 Linecode=2c_.04 Length=13.032452 Units=m
New Line.LINE176_Cmpd_2 Bus1=176_1560 Bus2=176_2121 phases=3 Linecode=2c_.04 Length=17.431485 Units=m
New Line.LINE176_Cmpd_3 Bus1=176_3428 Bus2=176_3616 phases=3 Linecode=2c_.04 Length=13.91214 Units=m
New Line.LINE176_Cmpd_4 Bus1=176_105 Bus2=176_389 phases=3 Linecode=2c_.04 Length=52.10427 Units=m
New Line.LINE176_Cmpd_5 Bus1=176_1995 Bus2=176_2399 phases=3 Linecode=2c_.04 Length=17.85825 Units=m
New Line.LINE176_Cmpd_6 Bus1=176_1644 Bus2=176_2342 phases=3 Linecode=2c_.04 Length=19.53877 Units=m
New Line.LINE176_Cmpd_7 Bus1=176_59 Bus2=176_102 phases=3 Linecode=4c_.2 Length=7.452343 Units=m
New Line.LINE176_Cmpd_8 Bus1=176_3493 Bus2=176_3747 phases=3 Linecode=2c_.04 Length=22.174633 Units=m
New Line.LINE176_Cmpd_9 Bus1=176_549 Bus2=176_1586 phases=3 Linecode=2c_.04 Length=21.188617 Units=m
New Line.LINE176_Cmpd_10 Bus1=176_768 Bus2=176_1292 phases=3 Linecode=2c_.04 Length=21.96469 Units=m
New Line.LINE176_Cmpd_11 Bus1=176_3144 Bus2=176_3428 phases=3 Linecode=2c_.04 Length=9.36718 Units=m
New Line.LINE176_Cmpd_12 Bus1=176_2083 Bus2=176_2709 phases=3 Linecode=2c_.04 Length=16.452491 Units=m
New Line.LINE176_Cmpd_13 Bus1=176_953 Bus2=176_1416 phases=3 Linecode=2c_.04 Length=17.00565 Units=m
New Line.LINE176_Cmpd_14 Bus1=176_742 Bus2=176_835 phases=3 Linecode=4c_.12 Length=21.9983 Units=m
New Line.LINE176_Cmpd_15 Bus1=176_204 Bus2=176_728 phases=3 Linecode=2c_.04 Length=17.320753 Units=m
New Line.LINE176_Cmpd_16 Bus1=176_1023 Bus2=176_1251 phases=3 Linecode=2c_.04 Length=8.12873 Units=m
New Line.LINE176_Cmpd_17 Bus1=176_2000 Bus2=176_2372 phases=3 Linecode=2c_.04 Length=7.923318 Units=m
New Line.LINE176_Cmpd_18 Bus1=176_59 Bus2=176_285 phases=3 Linecode=4c_.3 Length=92.50361 Units=m
New Line.LINE176_Cmpd_19 Bus1=176_207 Bus2=176_903 phases=3 Linecode=2c_.04 Length=20.810107 Units=m
New Line.LINE176_Cmpd_20 Bus1=176_548 Bus2=176_1644 phases=3 Linecode=2c_.04 Length=21.435591 Units=m
New Line.LINE176_Cmpd_21 Bus1=176_1195 Bus2=176_2125 phases=3 Linecode=4c_.12 Length=13.543386 Units=m
New Line.LINE176_Cmpd_22 Bus1=176_3747 Bus2=176_3829 phases=3 Linecode=2c_.04 Length=15.374633 Units=m
New Line.LINE176_Cmpd_23 Bus1=176_382 Bus2=176_1036 phases=3 Linecode=2c_.04 Length=8.334419 Units=m
New Line.LINE176_Cmpd_24 Bus1=176_1025 Bus2=176_1144 phases=3 Linecode=2c_.04 Length=4.768033 Units=m
New Line.LINE176_Cmpd_25 Bus1=176_3397 Bus2=176_3621 phases=3 Linecode=2c_.04 Length=20.44576 Units=m
New Line.LINE176_Cmpd_26 Bus1=176_1858 Bus2=176_2097 phases=3 Linecode=2c_.04 Length=7.92592 Units=m
New Line.LINE176_Cmpd_27 Bus1=176_276 Bus2=176_548 phases=3 Linecode=2c_.04 Length=6.293185 Units=m
New Line.LINE176_Cmpd_28 Bus1=176_2467 Bus2=176_3224 phases=3 Linecode=2c_.04 Length=21.215645 Units=m
New Line.LINE176_Cmpd_29 Bus1=176_1801 Bus2=176_2016 phases=3 Linecode=2c_.04 Length=5.73198 Units=m
New Line.LINE176_Cmpd_30 Bus1=176_415 Bus2=176_1391 phases=3 Linecode=2c_.04 Length=31.021268 Units=m
New Line.LINE176_Cmpd_31 Bus1=176_2274 Bus2=176_2607 phases=3 Linecode=2c_.04 Length=16.57561 Units=m
New Line.LINE176_Cmpd_32 Bus1=176_2156 Bus2=176_2665 phases=3 Linecode=2c_.04 Length=20.42982 Units=m
New Line.LINE176_Cmpd_33 Bus1=176_3829 Bus2=176_3855 phases=3 Linecode=2c_.04 Length=12.01567 Units=m
New Line.LINE176_Cmpd_34 Bus1=176_2561 Bus2=176_2934 phases=3 Linecode=2c_.04 Length=9.77437 Units=m
New Line.LINE176_Cmpd_35 Bus1=176_1050 Bus2=176_1300 phases=3 Linecode=2c_.04 Length=7.84256 Units=m
New Line.LINE176_Cmpd_36 Bus1=176_1586 Bus2=176_1979 phases=3 Linecode=2c_.04 Length=14.69199 Units=m
New Line.LINE176_Cmpd_37 Bus1=176_1313 Bus2=176_1494 phases=3 Linecode=2c_.04 Length=6.314586 Units=m
New Line.LINE176_Cmpd_38 Bus1=176_134 Bus2=176_318 phases=3 Linecode=2c_.04 Length=10.15317 Units=m
New Line.LINE176_Cmpd_39 Bus1=176_2164 Bus2=176_2429 phases=3 Linecode=2c_.04 Length=10.834607 Units=m
New Line.LINE176_Cmpd_40 Bus1=176_3519 Bus2=176_3658 phases=3 Linecode=2c_.04 Length=6.07425 Units=m
New Line.LINE176_Cmpd_41 Bus1=176_535 Bus2=176_745 phases=3 Linecode=2c_.04 Length=10.94168 Units=m
New Line.LINE176_Cmpd_42 Bus1=176_943 Bus2=176_1631 phases=3 Linecode=2c_.04 Length=17.395622 Units=m
New Line.LINE176_Cmpd_43 Bus1=176_2264 Bus2=176_2561 phases=3 Linecode=2c_.04 Length=6.35526 Units=m
New Line.LINE176_Cmpd_44 Bus1=176_2824 Bus2=176_3140 phases=3 Linecode=2c_.04 Length=6.94496 Units=m
New Line.LINE176_Cmpd_45 Bus1=176_929 Bus2=176_1313 phases=3 Linecode=2c_.04 Length=22.930974 Units=m
New Line.LINE176_Cmpd_46 Bus1=176_3658 Bus2=176_3731 phases=3 Linecode=2c_.04 Length=15.84944 Units=m
New Line.LINE176_Cmpd_47 Bus1=176_772 Bus2=176_1180 phases=3 Linecode=25_PSC Length=5.198073 Units=m
New Line.LINE176_Cmpd_48 Bus1=176_3236 Bus2=176_3324 phases=3 Linecode=4c_.12 Length=23.866 Units=m
New Line.LINE176_Cmpd_49 Bus1=176_1300 Bus2=176_1528 phases=3 Linecode=2c_.04 Length=14.08071 Units=m
New Line.LINE176_Cmpd_50 Bus1=176_1576 Bus2=176_2083 phases=3 Linecode=2c_.04 Length=7.439551 Units=m
New Line.LINE176_Cmpd_51 Bus1=176_1833 Bus2=176_1939 phases=3 Linecode=4c_.06_AS Length=24.7913 Units=m
New Line.LINE176_Cmpd_52 Bus1=176_2261 Bus2=176_2524 phases=3 Linecode=2c_.04 Length=7.52336 Units=m
New Line.LINE176_Cmpd_53 Bus1=176_3749 Bus2=176_3836 phases=3 Linecode=2c_.04 Length=17.854535 Units=m
New Line.LINE176_Cmpd_54 Bus1=176_2691 Bus2=176_3236 phases=3 Linecode=4c_.12 Length=52.84543 Units=m
New Line.LINE176_Cmpd_55 Bus1=176_3324 Bus2=176_3388 phases=3 Linecode=2c_.04 Length=13.22743 Units=m
New Line.LINE176_Cmpd_56 Bus1=176_1572 Bus2=176_1866 phases=3 Linecode=4c_.04 Length=13.96901 Units=m
New Line.LINE176_Cmpd_57 Bus1=176_3192 Bus2=176_3464 phases=3 Linecode=2c_.04 Length=6.331335 Units=m
New Line.LINE176_Cmpd_58 Bus1=176_29 Bus2=176_59 phases=3 Linecode=4c_.25 Length=36.510085 Units=m
New Line.LINE176_Cmpd_59 Bus1=176_1600 Bus2=176_1775 phases=3 Linecode=2c_.04 Length=9.71019 Units=m
New Line.LINE176_Cmpd_60 Bus1=176_285 Bus2=176_1179 phases=3 Linecode=3c_300_ASN Length=134.77696 Units=m
New Line.LINE176_Cmpd_61 Bus1=176_2591 Bus2=176_2657 phases=3 Linecode=4c_.12 Length=14.4645 Units=m
New Line.LINE176_Cmpd_62 Bus1=176_3066 Bus2=176_3549 phases=3 Linecode=2c_.04 Length=21.08864 Units=m
New Line.LINE176_Cmpd_63 Bus1=176_772 Bus2=176_1016 phases=3 Linecode=25_PSC Length=2.45722 Units=m
New Line.LINE176_Cmpd_64 Bus1=176_2054 Bus2=176_2546 phases=3 Linecode=2c_.04 Length=18.74469 Units=m
New Line.LINE176_Cmpd_65 Bus1=176_1036 Bus2=176_2094 phases=3 Linecode=2c_.04 Length=22.357234 Units=m
New Line.LINE176_Cmpd_66 Bus1=176_1025 Bus2=176_1125 phases=3 Linecode=2c_.04 Length=3.05239 Units=m
New Line.LINE176_Cmpd_67 Bus1=176_2470 Bus2=176_2591 phases=3 Linecode=4c_.12 Length=11.779299 Units=m
New Line.LINE176_Cmpd_68 Bus1=176_2570 Bus2=176_2807 phases=3 Linecode=4c_.12 Length=35.63345 Units=m
New Line.LINE176_Cmpd_69 Bus1=176_111 Bus2=176_194 phases=3 Linecode=4c_.12 Length=30.61811 Units=m
New Line.LINE176_Cmpd_70 Bus1=176_684 Bus2=176_1121 phases=3 Linecode=2c_.04 Length=17.235 Units=m
New Line.LINE176_Cmpd_71 Bus1=176_488 Bus2=176_568 phases=3 Linecode=4c_.12 Length=18.3398 Units=m
New Line.LINE176_Cmpd_72 Bus1=176_1993 Bus2=176_2164 phases=3 Linecode=4c_.06 Length=16.24416 Units=m
New Line.LINE176_Cmpd_73 Bus1=176_3464 Bus2=176_3749 phases=3 Linecode=2c_.04 Length=21.332225 Units=m
New Line.LINE176_Cmpd_74 Bus1=176_2075 Bus2=176_2454 phases=3 Linecode=2c_.04 Length=8.0836 Units=m
New Line.LINE176_Cmpd_75 Bus1=176_2379 Bus2=176_3144 phases=3 Linecode=2c_.04 Length=45.74358 Units=m
New Line.LINE176_Cmpd_76 Bus1=176_3292 Bus2=176_3516 phases=3 Linecode=2c_.04 Length=7.92672 Units=m
New Line.LINE176_Cmpd_77 Bus1=176_1 Bus2=176_29 phases=3 Linecode=3c_300_SAC_XC Length=13.593207 Units=m
New Line.LINE176_Cmpd_78 Bus1=176_2164 Bus2=176_2643 phases=3 Linecode=2c_.04 Length=12.72876 Units=m
New Line.LINE176_Cmpd_79 Bus1=176_389 Bus2=176_953 phases=3 Linecode=2c_.04 Length=9.811572 Units=m
New Line.LINE176_Cmpd_80 Bus1=176_488 Bus2=176_724 phases=3 Linecode=2c_.04 Length=11.63368 Units=m
New Line.LINE176_Cmpd_81 Bus1=176_1305 Bus2=176_1485 phases=3 Linecode=2c_.04 Length=7.79026 Units=m
New Line.LINE176_Cmpd_82 Bus1=176_276 Bus2=176_549 phases=3 Linecode=2c_.04 Length=3.048136 Units=m
New Line.LINE176_Cmpd_83 Bus1=176_2639 Bus2=176_2845 phases=3 Linecode=2c_.04 Length=2.67526 Units=m
New Line.LINE176_Cmpd_84 Bus1=176_1313 Bus2=176_1564 phases=3 Linecode=2c_.04 Length=8.466208 Units=m
New Line.LINE176_Cmpd_85 Bus1=176_1144 Bus2=176_1355 phases=3 Linecode=2c_.04 Length=8.45394 Units=m
New Line.LINE176_Cmpd_86 Bus1=176_2919 Bus2=176_3313 phases=3 Linecode=2c_.04 Length=8.115651 Units=m
New Line.LINE176_Cmpd_87 Bus1=176_3223 Bus2=176_3561 phases=3 Linecode=2c_.04 Length=17.157049 Units=m
New Line.LINE176_Cmpd_88 Bus1=176_1995 Bus2=176_2250 phases=3 Linecode=25_PSC Length=7.33647 Units=m
New Line.LINE176_Cmpd_89 Bus1=176_233 Bus2=176_929 phases=3 Linecode=4c_.12 Length=41.70269 Units=m
New Line.LINE176_Cmpd_90 Bus1=176_2261 Bus2=176_2467 phases=3 Linecode=2c_.04 Length=3.15039 Units=m