New Line.LINE1 Bus1=1 Bus2=2 phases=3 Linecode=3c_300_SAC_XC Length=1.0189 Units=m
New Line.LINE2 Bus1=2 Bus2=3 phases=3 Linecode=3c_300_SAC_XC Length=0.1191 Units=m
New Line.LINE3 Bus1=3 Bus2=4 phases=3 Linecode=3c_300_SAC_XC Length=0.11804 Units=m
New Line.LINE4 Bus1=4 Bus2=5 phases=3 Linecode=3c_300_SAC_XC Length=0.11853 Units=m
New Line.LINE5 Bus1=5 Bus2=6 phases=3 Linecode=3c_300_SAC_XC Length=0.11868 Units=m
New Line.LINE6 Bus1=6 Bus2=7 phases=3 Linecode=3c_300_SAC_XC Length=0.11904 Units=m
New Line.LINE7 Bus1=7 Bus2=8 phases=3 Linecode=3c_300_SAC_XC Length=0.11819 Units=m
New Line.LINE8 Bus1=8 Bus2=9 phases=3 Linecode=3c_300_SAC_XC Length=0.11881 Units=m
New Line.LINE9 Bus1=9 Bus2=10 phases=3 Linecode=3c_300_SAC_XC Length=0.1186 Units=m
New Line.LINE10 Bus1=10 Bus2=11 phases=3 Linecode=3c_300_SAC_XC Length=2.6857 Units=m
New Line.LINE11 Bus1=11 Bus2=12 phases=3 Linecode=3c_300_SAC_XC Length=0.60621 Units=m
New Line.LINE12 Bus1=12 Bus2=13 phases=3 Linecode=3c_300_SAC_XC Length=2.5521 Units=m
New Line.LINE13 Bus1=13 Bus2=14 phases=3 Linecode=3c_300_SAC_XC Length=0.052354 Units=m
New Line.LINE14 Bus1=14 Bus2=15 phases=3 Linecode=3c_300_SAC_XC Length=0.051855 Units=m
New Line.LINE15 Bus1=15 Bus2=16 phases=3 Linecode=3c_300_SAC_XC Length=0.051856 Units=m
New Line.LINE16 Bus1=16 Bus2=17 phases=3 Linecode=3c_300_SAC_XC Length=0.052354 Units=m
New Line.LINE17 Bus1=17 Bus2=18 phases=3 Linecode=3c_300_SAC_XC Length=0.051245 Units=m
New Line.LINE18 Bus1=18 Bus2=19 phases=3 Linecode=3c_300_SAC_XC Length=0.052345 Units=m
New Line.LINE19 Bus1=19 Bus2=20 phases=3 Linecode=3c_300_SAC_XC Length=0.052154 Units=m
New Line.LINE20 Bus1=20 Bus2=21 phases=3 Linecode=3c_300_SAC_XC Length=0.051924 Units=m
New Line.LINE21 Bus1=21 Bus2=22 phases=3 Linecode=3c_300_SAC_XC Length=3.2501 Units=m
New Line.LINE22 Bus1=22 Bus2=23 phases=3 Linecode=3c_300_SAC_XC Length=0.13728 Units=m
New Line.LINE23 Bus1=23 Bus2=24 phases=3 Linecode=3c_300_SAC_XC Length=0.13823 Units=m
New Line.LINE24 Bus1=24 Bus2=25 phases=3 Linecode=3c_300_SAC_XC Length=0.13805 Units=m
New Line.LINE25 Bus1=25 Bus2=26 phases=3 Linecode=3c_300_SAC_XC Length=0.13914 Units=m
New Line.LINE26 Bus1=26 Bus2=27 phases=3 Linecode=3c_300_SAC_XC Length=0.13831 Units=m
New Line.LINE27 Bus1=27 Bus2=28 phases=3 Linecode=3c_300_SAC_XC Length=0.13841 Units=m
New Line.LINE28 Bus1=28 Bus2=29 phases=3 Linecode=3c_300_SAC_XC Length=1.2857 Units=m
New Line.LINE29 Bus1=29 Bus2=30 phases=3 Linecode=4c_.25 Length=1.9492 Units=m
New Line.LINE31 Bus1=30 Bus2=32 phases=3 Linecode=4c_.25 Length=0.18041 Units=m
New Line.LINE32 Bus1=32 Bus2=33 phases=3 Linecode=4c_.25 Length=0.18983 Units=m
New Line.LINE33 Bus1=33 Bus2=34 phases=3 Linecode=4c_.25 Length=0.75305 Units=m
New Line.LINE34 Bus1=34 Bus2=35 phases=3 Linecode=4c_.25 Length=18.8981 Units=m
New Line.LINE35 Bus1=35 Bus2=36 phases=3 Linecode=4c_.25 Length=1.0647 Units=m
New Line.LINE36 Bus1=36 Bus2=37 phases=3 Linecode=4c_.25 Length=0.19038 Units=m
New Line.LINE37 Bus1=37 Bus2=38 phases=3 Linecode=4c_.25 Length=0.17773 Units=m
New Line.LINE38 Bus1=38 Bus2=39 phases=3 Linecode=4c_.25 Length=0.397 Units=m
New Line.LINE39 Bus1=39 Bus2=40 phases=3 Linecode=4c_.25 Length=3.0671 Units=m
New Line.LINE40 Bus1=40 Bus2=41 phases=3 Linecode=4c_.25 Length=3.0813 Units=m
New Line.LINE41 Bus1=41 Bus2=42 phases=3 Linecode=4c_.25 Length=0.64355 Units=m
New Line.LINE42 Bus1=42 Bus2=43 phases=3 Linecode=4c_.25 Length=0.16703 Units=m
New Line.LINE43 Bus1=43 Bus2=44 phases=3 Linecode=4c_.25 Length=0.090603 Units=m
New Line.LINE44 Bus1=44 Bus2=45 phases=3 Linecode=4c_.25 Length=0.11322 Units=m
New Line.LINE45 Bus1=45 Bus2=46 phases=3 Linecode=4c_.25 Length=0.093941 Units=m
New Line.LINE46 Bus1=46 Bus2=47 phases=3 Linecode=4c_.25 Length=0.176 Units=m
New Line.LINE47 Bus1=47 Bus2=48 phases=3 Linecode=4c_.25 Length=0.159 Units=m
New Line.LINE48 Bus1=48 Bus2=49 phases=3 Linecode=4c_.25 Length=0.12093 Units=m
New Line.LINE49 Bus1=49 Bus2=50 phases=3 Linecode=4c_.25 Length=0.067054 Units=m
New Line.LINE50 Bus1=50 Bus2=51 phases=3 Linecode=4c_.25 Length=0.099744 Units=m
New Line.LINE51 Bus1=51 Bus2=52 phases=3 Linecode=4c_.25 Length=0.081025 Units=m
New Line.LINE52 Bus1=52 Bus2=53 phases=3 Linecode=4c_.25 Length=0.095268 Units=m
New Line.LINE53 Bus1=53 Bus2=54 phases=3 Linecode=4c_.25 Length=0.11129 Units=m
New Line.LINE54 Bus1=54 Bus2=55 phases=3 Linecode=4c_.25 Length=0.31729 Units=m
New Line.LINE55 Bus1=55 Bus2=56 phases=3 Linecode=4c_.25 Length=1.4289 Units=m
New Line.LINE56 Bus1=56 Bus2=57 phases=3 Linecode=4c_.25 Length=0.33743 Units=m
New Line.LINE57 Bus1=57 Bus2=58 phases=3 Linecode=4c_.25 Length=1.4788 Units=m
New Line.LINE58 Bus1=58 Bus2=59 phases=3 Linecode=4c_.25 Length=0.98021 Units=m
New Line.LINE104 Bus1=102 Bus2=105 phases=3 Linecode=4c_.12 Length=1.939 Units=m
New Line.LINE110 Bus1=105 Bus2=111 phases=3 Linecode=4c_.12 Length=1.6398 Units=m
New Line.LINE116 Bus1=111 Bus2=117 phases=3 Linecode=2c_.04 Length=6.8256 Units=m
New Line.LINE123 Bus1=117 Bus2=124 phases=3 Linecode=2c_.04 Length=4.4985 Units=m
New Line.LINE133 Bus1=127 Bus2=134 phases=3 Linecode=2c_.04 Length=8.8692 Units=m
New Line.LINE141 Bus1=134 Bus2=142 phases=3 Linecode=2c_.04 Length=5.0849 Units=m
New Line.LINE203 Bus1=194 Bus2=204 phases=3 Linecode=2c_.04 Length=8.3069 Units=m
New Line.LINE206 Bus1=196 Bus2=207 phases=3 Linecode=2c_.04 Length=7.333 Units=m
New Line.LINE215 Bus1=204 Bus2=216 phases=3 Linecode=2c_.04 Length=3.7623 Units=m
New Line.LINE219 Bus1=207 Bus2=220 phases=3 Linecode=2c_.04 Length=4.0687 Units=m
New Line.LINE232 Bus1=218 Bus2=233 phases=3 Linecode=4c_.12 Length=4.1005 Units=m
New Line.LINE302 Bus1=285 Bus2=303 phases=3 Linecode=3c_300_ASN Length=0.23049 Units=m
New Line.LINE306 Bus1=288 Bus2=307 phases=3 Linecode=2c_.04 Length=5.4459 Units=m
New Line.LINE321 Bus1=301 Bus2=322 phases=3 Linecode=4c_.12 Length=6.7282 Units=m
New Line.LINE322 Bus1=301 Bus2=323 phases=3 Linecode=2c_.04 Length=7.9363 Units=m
New Line.LINE324 Bus1=303 Bus2=325 phases=3 Linecode=3c_300_ASN Length=0.15587 Units=m
New Line.LINE341 Bus1=322 Bus2=342 phases=3 Linecode=4c_.12 Length=2.5429 Units=m
New Line.LINE344 Bus1=323 Bus2=345 phases=3 Linecode=2c_.04 Length=4.8547 Units=m
New Line.LINE345 Bus1=325 Bus2=346 phases=3 Linecode=3c_300_ASN Length=0.23379 Units=m
New Line.LINE363 Bus1=342 Bus2=364 phases=3 Linecode=4c_.12 Length=6.4899 Units=m
New Line.LINE366 Bus1=346 Bus2=367 phases=3 Linecode=3c_300_ASN Length=0.228 Units=m
New Line.LINE382 Bus1=364 Bus2=383 phases=3 Linecode=4c_.12 Length=1.4222 Units=m
New Line.LINE385 Bus1=367 Bus2=386 phases=3 Linecode=3c_300_ASN Length=8.9783 Units=m
New Line.LINE400 Bus1=382 Bus2=401 phases=3 Linecode=2c_.04 Length=4.3632 Units=m
New Line.LINE404 Bus1=383 Bus2=405 phases=3 Linecode=4c_.12 Length=1.3531 Units=m
New Line.LINE406 Bus1=386 Bus2=407 phases=3 Linecode=3c_300_ASN Length=10.7726 Units=m
New Line.LINE409 Bus1=389 Bus2=410 phases=3 Linecode=2c_.04 Length=6.0619 Units=m
New Line.LINE427 Bus1=405 Bus2=428 phases=3 Linecode=2c_.04 Length=0.43078 Units=m
New Line.LINE429 Bus1=407 Bus2=430 phases=3 Linecode=3c_300_ASN Length=1.6648 Units=m
New Line.LINE439 Bus1=415 Bus2=440 phases=3 Linecode=2c_.04 Length=4.9893 Units=m
New Line.LINE440 Bus1=415 Bus2=441 phases=3 Linecode=2c_.04 Length=4.9893 Units=m
New Line.LINE453 Bus1=428 Bus2=454 phases=3 Linecode=2c_.04 Length=0.088091 Units=m
New Line.LINE455 Bus1=430 Bus2=456 phases=3 Linecode=3c_300_ASN Length=11.9762 Units=m
New Line.LINE477 Bus1=454 Bus2=478 phases=3 Linecode=2c_.04 Length=0.089051 Units=m
New Line.LINE479 Bus1=456 Bus2=480 phases=3 Linecode=3c_300_ASN Length=2.2283 Units=m
New Line.LINE482 Bus1=457 Bus2=483 phases=3 Linecode=2c_.04 Length=6.1533 Units=m
New Line.LINE504 Bus1=478 Bus2=505 phases=3 Linecode=2c_.04 Length=0.088769 Units=m
New Line.LINE506 Bus1=480 Bus2=507 phases=3 Linecode=3c_300_ASN Length=6.6346 Units=m
New Line.LINE511 Bus1=483 Bus2=512 phases=3 Linecode=2c_.04 Length=5.0943 Units=m
New Line.LINE531 Bus1=505 Bus2=532 phases=3 Linecode=2c_.04 Length=0.088752 Units=m
New Line.LINE533 Bus1=507 Bus2=534 phases=3 Linecode=3c_300_ASN Length=2.2836 Units=m
New Line.LINE557 Bus1=532 Bus2=558 phases=3 Linecode=2c_.04 Length=0.57369 Units=m
New Line.LINE559 Bus1=534 Bus2=560 phases=3 Linecode=3c_300_ASN Length=0.10934 Units=m
New Line.LINE574 Bus1=547 Bus2=575 phases=3 Linecode=2c_.04 Length=2.344 Units=m
New Line.LINE575 Bus1=547 Bus2=576 phases=3 Linecode=2c_.04 Length=2.344 Units=m
New Line.LINE576 Bus1=548 Bus2=577 phases=3 Linecode=2c_.04 Length=6.3346 Units=m
New Line.LINE578 Bus1=549 Bus2=579 phases=3 Linecode=2c_.04 Length=5.3837 Units=m
New Line.LINE588 Bus1=558 Bus2=589 phases=3 Linecode=2c_.04 Length=0.57344 Units=m
New Line.LINE592 Bus1=560 Bus2=593 phases=3 Linecode=3c_300_ASN Length=0.10977 Units=m
New Line.LINE601 Bus1=568 Bus2=602 phases=3 Linecode=2c_.04 Length=5.3316 Units=m
New Line.LINE618 Bus1=589 Bus2=619 phases=3 Linecode=2c_.04 Length=0.070229 Units=m
New Line.LINE622 Bus1=593 Bus2=623 phases=3 Linecode=3c_300_ASN Length=0.24044 Units=m
New Line.LINE649 Bus1=619 Bus2=650 phases=3 Linecode=2c_.04 Length=0.070328 Units=m
New Line.LINE652 Bus1=623 Bus2=653 phases=3 Linecode=3c_300_ASN Length=0.28959 Units=m
New Line.LINE678 Bus1=650 Bus2=679 phases=3 Linecode=2c_.04 Length=0.071218 Units=m
New Line.LINE681 Bus1=653 Bus2=682 phases=3 Linecode=3c_300_ASN Length=0.51608 Units=m
New Line.LINE683 Bus1=654 Bus2=684 phases=3 Linecode=2c_.04 Length=6.5306 Units=m
New Line.LINE709 Bus1=679 Bus2=710 phases=3 Linecode=2c_.04 Length=0.069353 Units=m
New Line.LINE711 Bus1=682 Bus2=712 phases=3 Linecode=3c_300_ASN Length=0.34386 Units=m
New Line.LINE713 Bus1=684 Bus2=714 phases=3 Linecode=2c_.04 Length=3.832 Units=m
New Line.LINE720 Bus1=691 Bus2=721 phases=3 Linecode=2c_.04 Length=8.4976 Units=m
New Line.LINE737 Bus1=710 Bus2=738 phases=3 Linecode=2c_.04 Length=0.070726 Units=m
New Line.LINE739 Bus1=712 Bus2=740 phases=3 Linecode=3c_300_ASN Length=0.18837 Units=m
New Line.LINE752 Bus1=724 Bus2=753 phases=3 Linecode=2c_.04 Length=5.8887 Units=m
New Line.LINE753 Bus1=724 Bus2=754 phases=3 Linecode=2c_.04 Length=6.776 Units=m
New Line.LINE754 Bus1=724 Bus2=755 phases=3 Linecode=2c_.04 Length=6.776 Units=m
New Line.LINE767 Bus1=738 Bus2=768 phases=3 Linecode=2c_.04 Length=4.7299 Units=m
New Line.LINE769 Bus1=740 Bus2=770 phases=3 Linecode=3c_300_ASN Length=0.18969 Units=m
New Line.LINE771 Bus1=742 Bus2=772 phases=3 Linecode=25_PSC Length=9.14 Units=m
New Line.LINE775 Bus1=745 Bus2=776 phases=3 Linecode=2c_.04 Length=5.8392 Units=m
New Line.LINE776 Bus1=745 Bus2=777 phases=3 Linecode=2c_.04 Length=5.8392 Units=m
New Line.LINE777 Bus1=745 Bus2=778 phases=3 Linecode=2c_.04 Length=5.9753 Units=m
New Line.LINE784 Bus1=753 Bus2=785 phases=3 Linecode=2c_.04 Length=4.3663 Units=m
New Line.LINE785 Bus1=753 Bus2=786 phases=3 Linecode=2c_.04 Length=4.3663 Units=m
New Line.LINE798 Bus1=768 Bus2=799 phases=3 Linecode=35_SAC_XC Length=5.1489 Units=m
New Line.LINE800 Bus1=770 Bus2=801 phases=3 Linecode=3c_300_ASN Length=30.5585 Units=m
New Line.LINE808 Bus1=778 Bus2=809 phases=3 Linecode=2c_.04 Length=6.8782 Units=m
New Line.LINE809 Bus1=778 Bus2=810 phases=3 Linecode=2c_.04 Length=6.8782 Units=m
New Line.LINE829 Bus1=801 Bus2=830 phases=3 Linecode=3c_300_ASN Length=0.18976 Units=m
New Line.LINE856 Bus1=830 Bus2=857 phases=3 Linecode=3c_300_ASN Length=0.12559 Units=m
New Line.LINE861 Bus1=835 Bus2=862 phases=3 Linecode=2c_.04 Length=6.6184 Units=m
New Line.LINE881 Bus1=857 Bus2=882 phases=3 Linecode=3c_300_ASN Length=0.157 Units=m
New Line.LINE886 Bus1=862 Bus2=887 phases=3 Linecode=2c_.04 Length=5.3031 Units=m
New Line.LINE907 Bus1=882 Bus2=908 phases=3 Linecode=3c_300_ASN Length=0.11853 Units=m
New Line.LINE913 Bus1=889 Bus2=914 phases=3 Linecode=2c_.04 Length=7.383 Units=m
New Line.LINE914 Bus1=889 Bus2=915 phases=3 Linecode=4c_.12 Length=7.296 Units=m
New Line.LINE918 Bus1=893 Bus2=919 phases=3 Linecode=2c_.04 Length=5.2271 Units=m
New Line.LINE929 Bus1=903 Bus2=930 phases=3 Linecode=2c_.04 Length=1.7277 Units=m
New Line.LINE930 Bus1=903 Bus2=931 phases=3 Linecode=2c_.04 Length=1.7277 Units=m
New Line.LINE934 Bus1=908 Bus2=935 phases=3 Linecode=3c_300_ASN Length=0.15148 Units=m
New Line.LINE942 Bus1=915 Bus2=943 phases=3 Linecode=4c_.12 Length=2.4783 Units=m
New Line.LINE962 Bus1=935 Bus2=963 phases=3 Linecode=3c_300_ASN Length=7.3865 Units=m
New Line.LINE969 Bus1=943 Bus2=970 phases=3 Linecode=2c_.04 Length=0.33051 Units=m
New Line.LINE979 Bus1=953 Bus2=980 phases=3 Linecode=2c_.04 Length=6.0623 Units=m
New Line.LINE990 Bus1=963 Bus2=991 phases=3 Linecode=3c_300_ASN Length=15.2834 Units=m
New Line.LINE995 Bus1=970 Bus2=996 phases=3 Linecode=2c_.04 Length=0.048105 Units=m
New Line.LINE1014 Bus1=991 Bus2=1015 phases=3 Linecode=3c_300_ASN Length=0.20635 Units=m
New Line.LINE1019 Bus1=996 Bus2=1020 phases=3 Linecode=2c_.04 Length=0.047539 Units=m
New Line.LINE1024 Bus1=1002 Bus2=1025 phases=3 Linecode=2c_.04 Length=4.2433 Units=m
New Line.LINE1038 Bus1=1015 Bus2=1039 phases=3 Linecode=3c_300_ASN Length=0.15882 Units=m
New Line.LINE1039 Bus1=1016 Bus2=1040 phases=3 Linecode=25_PSC Length=2.8833 Units=m
New Line.LINE1040 Bus1=1016 Bus2=1041 phases=3 Linecode=25_PSC Length=2.8833 Units=m
New Line.LINE1044 Bus1=1020 Bus2=1045 phases=3 Linecode=2c_.04 Length=0.080808 Units=m
New Line.LINE1048 Bus1=1023 Bus2=1049 phases=3 Linecode=2c_.04 Length=5.7298 Units=m
New Line.LINE1061 Bus1=1036 Bus2=1062 phases=3 Linecode=2c_.04 Length=3.2822 Units=m
New Line.LINE1065 Bus1=1039 Bus2=1066 phases=3 Linecode=3c_300_ASN Length=0.15262 Units=m
New Line.LINE1069 Bus1=1045 Bus2=1070 phases=3 Linecode=2c_.04 Length=0.12449 Units=m
New Line.LINE1074 Bus1=1050 Bus2=1075 phases=3 Linecode=2c_.04 Length=5.3231 Units=m
New Line.LINE1090 Bus1=1066 Bus2=1091 phases=3 Linecode=3c_300_ASN Length=16.9979 Units=m
New Line.LINE1093 Bus1=1069 Bus2=1094 phases=3 Linecode=2c_.04 Length=4.6484 Units=m
New Line.LINE1094 Bus1=1069 Bus2=1095 phases=3 Linecode=2c_.04 Length=4.6484 Units=m
New Line.LINE1095 Bus1=1070 Bus2=1096 phases=3 Linecode=2c_.04 Length=0.153 Units=m
New Line.LINE1104 Bus1=1080 Bus2=1105 phases=3 Linecode=2c_.04 Length=7.2047 Units=m
New Line.LINE1105 Bus1=1080 Bus2=1106 phases=3 Linecode=2c_.04 Length=7.2047 Units=m
New Line.LINE1116 Bus1=1091 Bus2=1117 phases=3 Linecode=3c_300_ASN Length=14.62 Units=m
New Line.LINE1119 Bus1=1096 Bus2=1120 phases=3 Linecode=2c_.04 Length=0.18732 Units=m
New Line.LINE1137 Bus1=1117 Bus2=1138 phases=3 Linecode=3c_300_ASN Length=0.22434 Units=m
New Line.LINE1140 Bus1=1120 Bus2=1141 phases=3 Linecode=2c_.04 Length=0.40468 Units=m
New Line.LINE1145 Bus1=1125 Bus2=1146 phases=3 Linecode=2c_.04 Length=5.5235 Units=m
New Line.LINE1158 Bus1=1138 Bus2=1159 phases=3 Linecode=3c_300_ASN Length=0.76184 Units=m
New Line.LINE1161 Bus1=1141 Bus2=1162 phases=3 Linecode=2c_.04 Length=0.52708 Units=m
New Line.LINE1165 Bus1=1144 Bus2=1166 phases=3 Linecode=2c_.04 Length=5.406 Units=m
New Line.LINE1178 Bus1=1159 Bus2=1179 phases=3 Linecode=3c_300_ASN Length=0.31064 Units=m
New Line.LINE1181 Bus1=1162 Bus2=1182 phases=3 Linecode=2c_.04 Length=1.1652 Units=m
New Line.LINE1198 Bus1=1179 Bus2=1199 phases=3 Linecode=3c_300_SAC_ASN Length=0.56922 Units=m
New Line.LINE1201 Bus1=1180 Bus2=1202 phases=3 Linecode=25_PSC Length=5.1711 Units=m
New Line.LINE1202 Bus1=1180 Bus2=1203 phases=3 Linecode=25_PSC Length=5.1711 Units=m
New Line.LINE1204 Bus1=1182 Bus2=1205 phases=3 Linecode=2c_.04 Length=1.0331 Units=m
New Line.LINE1218 Bus1=1195 Bus2=1219 phases=3 Linecode=25_SAC_XC Length=0.2619 Units=m
New Line.LINE1223 Bus1=1199 Bus2=1224 phases=3 Linecode=3c_300_SAC_ASN Length=0.43518 Units=m
New Line.LINE1226 Bus1=1205 Bus2=1227 phases=3 Linecode=2c_.04 Length=0.83069 Units=m
New Line.LINE1246 Bus1=1224 Bus2=1247 phases=3 Linecode=3c_300_SAC_ASN Length=0.69604 Units=m
New Line.LINE1249 Bus1=1227 Bus2=1250 phases=3 Linecode=2c_.04 Length=1.5592 Units=m
New Line.LINE1269 Bus1=1247 Bus2=1270 phases=3 Linecode=3c_300_SAC_ASN Length=1.3428 Units=m
New Line.LINE1272 Bus1=1250 Bus2=1273 phases=3 Linecode=2c_.04 Length=0.11498 Units=m
New Line.LINE1274 Bus1=1251 Bus2=1275 phases=3 Linecode=2c_.04 Length=5.5889 Units=m
New Line.LINE1280 Bus1=1256 Bus2=1281 phases=3 Linecode=4c_.12 Length=1.4779 Units=m
New Line.LINE1294 Bus1=1270 Bus2=1295 phases=3 Linecode=3c_300_SAC_ASN Length=0.23664 Units=m
New Line.LINE1297 Bus1=1273 Bus2=1298 phases=3 Linecode=2c_.04 Length=0.2489 Units=m
New Line.LINE1304 Bus1=1281 Bus2=1305 phases=3 Linecode=2c_.04 Length=27.336 Units=m
New Line.LINE1316 Bus1=1292 Bus2=1317 phases=3 Linecode=2c_.04 Length=5.9486 Units=m
New Line.LINE1317 Bus1=1292 Bus2=1318 phases=3 Linecode=2c_.04 Length=5.9486 Units=m
New Line.LINE1320 Bus1=1295 Bus2=1321 phases=3 Linecode=3c_300_SAC_ASN Length=0.18417 Units=m
New Line.LINE1323 Bus1=1298 Bus2=1324 phases=3 Linecode=2c_.04 Length=0.1472 Units=m
New Line.LINE1326 Bus1=1300 Bus2=1327 phases=3 Linecode=2c_.04 Length=5.4889 Units=m
New Line.LINE1329 Bus1=1302 Bus2=1330 phases=3 Linecode=2c_.04 Length=5.426 Units=m
New Line.LINE1348 Bus1=1321 Bus2=1349 phases=3 Linecode=3c_300_SAC_ASN Length=0.10434 Units=m
New Line.LINE1351 Bus1=1324 Bus2=1352 phases=3 Linecode=2c_.04 Length=0.17241 Units=m
New Line.LINE1374 Bus1=1349 Bus2=1375 phases=3 Linecode=3c_300_SAC_ASN Length=0.14446 Units=m
New Line.LINE1377 Bus1=1352 Bus2=1378 phases=3 Linecode=2c_.04 Length=0.11796 Units=m
New Line.LINE1381 Bus1=1355 Bus2=1382 phases=3 Linecode=2c_.04 Length=5.0273 Units=m
New Line.LINE1402 Bus1=1375 Bus2=1403 phases=3 Linecode=3c_300_SAC_ASN Length=0.15205 Units=m
New Line.LINE1405 Bus1=1378 Bus2=1406 phases=3 Linecode=2c_.04 Length=0.16269 Units=m
New Line.LINE1427 Bus1=1403 Bus2=1428 phases=3 Linecode=3c_300_SAC_ASN Length=0.10259 Units=m
New Line.LINE1429 Bus1=1406 Bus2=1430 phases=3 Linecode=2c_.04 Length=0.22401 Units=m
New Line.LINE1451 Bus1=1428 Bus2=1452 phases=3 Linecode=3c_300_SAC_ASN Length=0.2794 Units=m
New Line.LINE1453 Bus1=1430 Bus2=1454 phases=3 Linecode=2c_.04 Length=2.4706 Units=m
New Line.LINE1475 Bus1=1452 Bus2=1476 phases=3 Linecode=3c_300_SAC_ASN Length=0.30056 Units=m
New Line.LINE1477 Bus1=1454 Bus2=1478 phases=3 Linecode=2c_.04 Length=0.13547 Units=m
New Line.LINE1498 Bus1=1476 Bus2=1499 phases=3 Linecode=3c_300_SAC_ASN Length=0.23347 Units=m
New Line.LINE1500 Bus1=1478 Bus2=1501 phases=3 Linecode=2c_.04 Length=0.1781 Units=m
New Line.LINE1508 Bus1=1485 Bus2=1509 phases=3 Linecode=2c_.04 Length=5.2311 Units=m
New Line.LINE1510 Bus1=1486 Bus2=1511 phases=3 Linecode=2c_.04 Length=5.0582 Units=m
New Line.LINE1517 Bus1=1494 Bus2=1518 phases=3 Linecode=3c_.04 Length=4.6471 Units=m
New Line.LINE1523 Bus1=1499 Bus2=1524 phases=3 Linecode=3c_300_SAC_ASN Length=0.79338 Units=m
New Line.LINE1525 Bus1=1501 Bus2=1526 phases=3 Linecode=2c_.04 Length=0.074 Units=m
New Line.LINE1548 Bus1=1526 Bus2=1549 phases=3 Linecode=2c_.04 Length=0.13537 Units=m
New Line.LINE1554 Bus1=1532 Bus2=1555 phases=3 Linecode=3c_.04 Length=5.4685 Units=m
New Line.LINE1559 Bus1=1536 Bus2=1560 phases=3 Linecode=2c_.04 Length=13.6097 Units=m
New Line.LINE1572 Bus1=1549 Bus2=1573 phases=3 Linecode=2c_.04 Length=0.13193 Units=m
New Line.LINE1583 Bus1=1560 Bus2=1584 phases=3 Linecode=2c_.04 Length=3.7549 Units=m
New Line.LINE1587 Bus1=1564 Bus2=1588 phases=3 Linecode=3c_.04 Length=5.1975 Units=m
New Line.LINE1599 Bus1=1572 Bus2=1600 phases=3 Linecode=4c_.06 Length=4.4745 Units=m
New Line.LINE1601 Bus1=1573 Bus2=1602 phases=3 Linecode=2c_.04 Length=0.98308 Units=m
New Line.LINE1605 Bus1=1576 Bus2=1606 phases=3 Linecode=2c_.04 Length=5.4983 Units=m
New Line.LINE1615 Bus1=1586 Bus2=1616 phases=3 Linecode=2c_.04 Length=3.4404 Units=m
New Line.LINE1616 Bus1=1586 Bus2=1617 phases=3 Linecode=2c_.04 Length=3.4404 Units=m
New Line.LINE1628 Bus1=1600 Bus2=1629 phases=3 Linecode=2c_.04 Length=8.5353 Units=m
New Line.LINE1630 Bus1=1602 Bus2=1631 phases=3 Linecode=2c_.04 Length=5.6072 Units=m
New Line.LINE1640 Bus1=1613 Bus2=1641 phases=3 Linecode=4c_.12 Length=14.6731 Units=m
New Line.LINE1641 Bus1=1613 Bus2=1642 phases=3 Linecode=2c_.04 Length=4.818 Units=m
New Line.LINE1655 Bus1=1629 Bus2=1656 phases=3 Linecode=2c_.04 Length=0.20617 Units=m
New Line.LINE1666 Bus1=1641 Bus2=1667 phases=3 Linecode=4c_.12 Length=5.3149 Units=m
New Line.LINE1670 Bus1=1644 Bus2=1671 phases=3 Linecode=2c_.04 Length=6.7571 Units=m
New Line.LINE1671 Bus1=1644 Bus2=1672 phases=3 Linecode=2c_.04 Length=6.7571 Units=m
New Line.LINE1685 Bus1=1656 Bus2=1686 phases=3 Linecode=2c_.04 Length=0.16755 Units=m
New Line.LINE1696 Bus1=1667 Bus2=1697 phases=3 Linecode=4c_.12 Length=12.6644 Units=m
New Line.LINE1710 Bus1=1682 Bus2=1711 phases=3 Linecode=4c_.04 Length=15.9207 Units=m
New Line.LINE1714 Bus1=1686 Bus2=1715 phases=3 Linecode=2c_.04 Length=0.11847 Units=m
New Line.LINE1725 Bus1=1697 Bus2=1726 phases=3 Linecode=4c_.12 Length=1.6369 Units=m
New Line.LINE1744 Bus1=1715 Bus2=1745 phases=3 Linecode=2c_.04 Length=0.197 Units=m
New Line.LINE1754 Bus1=1726 Bus2=1755 phases=3 Linecode=2c_.04 Length=6.2145 Units=m
New Line.LINE1774 Bus1=1745 Bus2=1775 phases=3 Linecode=2c_.04 Length=0.4857 Units=m
New Line.LINE1784 Bus1=1755 Bus2=1785 phases=3 Linecode=2c_.04 Length=0.38354 Units=m
New Line.LINE1800 Bus1=1772 Bus2=1801 phases=3 Linecode=2c_.04 Length=13.287 Units=m
New Line.LINE1804 Bus1=1775 Bus2=1805 phases=3 Linecode=2c_.04 Length=4.2411 Units=m
New Line.LINE1814 Bus1=1785 Bus2=1815 phases=3 Linecode=2c_.04 Length=1.0282 Units=m
New Line.LINE1842 Bus1=1815 Bus2=1843 phases=3 Linecode=2c_.04 Length=6.6286 Units=m
New Line.LINE1844 Bus1=1817 Bus2=1845 phases=3 Linecode=2c_.04 Length=6.0535 Units=m
New Line.LINE1856 Bus1=1828 Bus2=1857 phases=3 Linecode=2c_.04 Length=3.3864 Units=m
New Line.LINE1861 Bus1=1833 Bus2=1862 phases=3 Linecode=25_SAC_XC Length=2.9817 Units=m
New Line.LINE1872 Bus1=1846 Bus2=1873 phases=3 Linecode=2c_.04 Length=4.5823 Units=m
New Line.LINE1884 Bus1=1858 Bus2=1885 phases=3 Linecode=2c_.04 Length=3.3143 Units=m
New Line.LINE1953 Bus1=1929 Bus2=1954 phases=3 Linecode=2c_.04 Length=4.8815 Units=m
New Line.LINE1964 Bus1=1939 Bus2=1965 phases=3 Linecode=4c_.04 Length=15.7986 Units=m
New Line.LINE1971 Bus1=1945 Bus2=1972 phases=3 Linecode=2c_.04 Length=5.2528 Units=m
New Line.LINE2004 Bus1=1979 Bus2=2005 phases=3 Linecode=2c_.04 Length=6.9645 Units=m
New Line.LINE2005 Bus1=1979 Bus2=2006 phases=3 Linecode=2c_.04 Length=6.9645 Units=m
New Line.LINE2019 Bus1=1993 Bus2=2020 phases=3 Linecode=4c_.06_AS Length=3.9922 Units=m
New Line.LINE2028 Bus1=1999 Bus2=2029 phases=3 Linecode=2c_.04 Length=1.5231 Units=m
New Line.LINE2030 Bus1=2000 Bus2=2031 phases=3 Linecode=2c_.04 Length=4.2797 Units=m
New Line.LINE2045 Bus1=2016 Bus2=2046 phases=3 Linecode=2c_.04 Length=4.9185 Units=m
New Line.LINE2049 Bus1=2020 Bus2=2050 phases=3 Linecode=4c_.06_AS Length=6.5997 Units=m
New Line.LINE2062 Bus1=2036 Bus2=2063 phases=3 Linecode=2c_.04 Length=5.5599 Units=m
New Line.LINE2076 Bus1=2050 Bus2=2077 phases=3 Linecode=4c_.06_AS Length=1.6756 Units=m
New Line.LINE2080 Bus1=2054 Bus2=2081 phases=3 Linecode=2c_.04 Length=5.9958 Units=m
New Line.LINE2099 Bus1=2072 Bus2=2100 phases=3 Linecode=2c_.04 Length=2.8356 Units=m
New Line.LINE2100 Bus1=2072 Bus2=2101 phases=3 Linecode=2c_.04 Length=2.8356 Units=m
New Line.LINE2102 Bus1=2075 Bus2=2103 phases=3 Linecode=2c_.04 Length=4.1821 Units=m
New Line.LINE2104 Bus1=2075 Bus2=2105 phases=3 Linecode=2c_.04 Length=3.4154 Units=m
New Line.LINE2105 Bus1=2076 Bus2=2106 phases=3 Linecode=2c_.04 Length=5.6823 Units=m
New Line.LINE2107 Bus1=2076 Bus2=2108 phases=3 Linecode=2c_.04 Length=3.2803 Units=m
New Line.LINE2108 Bus1=2077 Bus2=2109 phases=3 Linecode=4c_.06_AS Length=2.9723 Units=m
New Line.LINE2114 Bus1=2083 Bus2=2115 phases=3 Linecode=2c_.04 Length=5.3586 Units=m
New Line.LINE2125 Bus1=2094 Bus2=2126 phases=3 Linecode=2c_.04 Length=2.127 Units=m
New Line.LINE2126 Bus1=2094 Bus2=2127 phases=3 Linecode=2c_.04 Length=2.127 Units=m
New Line.LINE2130 Bus1=2097 Bus2=2131 phases=3 Linecode=2c_.04 Length=5.9404 Units=m
New Line.LINE2131 Bus1=2097 Bus2=2132 phases=3 Linecode=2c_.04 Length=5.9404 Units=m
New Line.LINE2132 Bus1=2097 Bus2=2133 phases=3 Linecode=2c_.04 Length=5.1705 Units=m
New Line.LINE2138 Bus1=2109 Bus2=2139 phases=3 Linecode=4c_.06_AS Length=1.7276 Units=m
New Line.LINE2152 Bus1=2125 Bus2=2153 phases=3 Linecode=4c_.12 Length=1.0181 Units=m
New Line.LINE2162 Bus1=2139 Bus2=2163 phases=3 Linecode=4c_.06_AS Length=2.313 Units=m
New Line.LINE2177 Bus1=2153 Bus2=2178 phases=3 Linecode=4c_.12 Length=1.1715 Units=m
New Line.LINE2180 Bus1=2156 Bus2=2181 phases=3 Linecode=2c_.04 Length=1.8232 Units=m
New Line.LINE2181 Bus1=2156 Bus2=2182 phases=3 Linecode=2c_.04 Length=1.8232 Units=m
New Line.LINE2188 Bus1=2163 Bus2=2189 phases=3 Linecode=4c_.06_AS Length=1.5303 Units=m
New Line.LINE2204 Bus1=2176 Bus2=2205 phases=3 Linecode=4c_.12 Length=0.49041 Units=m
New Line.LINE2207 Bus1=2178 Bus2=2208 phases=3 Linecode=4c_.12 Length=0.80665 Units=m
New Line.LINE2216 Bus1=2189 Bus2=2217 phases=3 Linecode=4c_.12 Length=1.2231 Units=m
New Line.LINE2234 Bus1=2205 Bus2=2235 phases=3 Linecode=2c_.04 Length=6.4036 Units=m
New Line.LINE2236 Bus1=2208 Bus2=2237 phases=3 Linecode=4c_.12 Length=0.19424 Units=m
New Line.LINE2244 Bus1=2217 Bus2=2245 phases=3 Linecode=4c_.12 Length=1.5398 Units=m
New Line.LINE2253 Bus1=2226 Bus2=2254 phases=3 Linecode=2c_.04 Length=6.359 Units=m
New Line.LINE2254 Bus1=2226 Bus2=2255 phases=3 Linecode=2c_.04 Length=10.9871 Units=m
New Line.LINE2260 Bus1=2233 Bus2=2261 phases=3 Linecode=2c_.04 Length=6.2 Units=m
New Line.LINE2263 Bus1=2235 Bus2=2264 phases=3 Linecode=2c_.04 Length=9.6511 Units=m
New Line.LINE2265 Bus1=2237 Bus2=2266 phases=3 Linecode=4c_.12 Length=0.15338 Units=m
New Line.LINE2273 Bus1=2245 Bus2=2274 phases=3 Linecode=4c_.12 Length=1.4902 Units=m
New Line.LINE2290 Bus1=2264 Bus2=2291 phases=3 Linecode=2c_.04 Length=4.6365 Units=m
New Line.LINE2293 Bus1=2266 Bus2=2294 phases=3 Linecode=4c_.12 Length=0.20181 Units=m
New Line.LINE2323 Bus1=2294 Bus2=2324 phases=3 Linecode=4c_.12 Length=0.19949 Units=m
New Line.LINE2353 Bus1=2324 Bus2=2354 phases=3 Linecode=4c_.12 Length=0.18311 Units=m
New Line.LINE2369 Bus1=2340 Bus2=2370 phases=3 Linecode=2c_.04 Length=4.3942 Units=m
New Line.LINE2370 Bus1=2340 Bus2=2371 phases=3 Linecode=2c_.04 Length=4.3942 Units=m
New Line.LINE2378 Bus1=2347 Bus2=2379 phases=3 Linecode=4c_.12 Length=1.4823 Units=m
New Line.LINE2382 Bus1=2354 Bus2=2383 phases=3 Linecode=4c_.12 Length=0.21578 Units=m
New Line.LINE2391 Bus1=2361 Bus2=2392 phases=3 Linecode=2c_.04 Length=5.2733 Units=m
New Line.LINE2392 Bus1=2361 Bus2=2393 phases=3 Linecode=2c_.04 Length=5.2733 Units=m
New Line.LINE2401 Bus1=2372 Bus2=2402 phases=3 Linecode=2c_.04 Length=4.9174 Units=m
New Line.LINE2402 Bus1=2372 Bus2=2403 phases=3 Linecode=2c_.04 Length=4.9174 Units=m
New Line.LINE2411 Bus1=2379 Bus2=2412 phases=3 Linecode=2c_.04 Length=0.14507 Units=m
New Line.LINE2415 Bus1=2383 Bus2=2416 phases=3 Linecode=4c_.12 Length=0.62105 Units=m
New Line.LINE2429 Bus1=2399 Bus2=2430 phases=3 Linecode=2c_.04 Length=7.7507 Units=m
New Line.LINE2430 Bus1=2399 Bus2=2431 phases=3 Linecode=2c_.04 Length=7.7507 Units=m
New Line.LINE2434 Bus1=2404 Bus2=2435 phases=3 Linecode=2c_.04 Length=3.291 Units=m
New Line.LINE2442 Bus1=2412 Bus2=2443 phases=3 Linecode=2c_.04 Length=0.083 Units=m
New Line.LINE2446 Bus1=2416 Bus2=2447 phases=3 Linecode=4c_.12 Length=0.50085 Units=m
New Line.LINE2460 Bus1=2429 Bus2=2461 phases=3 Linecode=2c_.04 Length=4.3531 Units=m
New Line.LINE2471 Bus1=2443 Bus2=2472 phases=3 Linecode=2c_.04 Length=0.10742 Units=m
New Line.LINE2474 Bus1=2447 Bus2=2475 phases=3 Linecode=4c_.12 Length=0.40551 Units=m
New Line.LINE2481 Bus1=2454 Bus2=2482 phases=3 Linecode=2c_.04 Length=5.3488 Units=m
New Line.LINE2483 Bus1=2454 Bus2=2484 phases=3 Linecode=2c_.04 Length=2.23 Units=m
New Line.LINE2484 Bus1=2454 Bus2=2485 phases=3 Linecode=2c_.04 Length=2.23 Units=m
New Line.LINE2495 Bus1=2467 Bus2=2496 phases=3 Linecode=2c_.04 Length=5.6374 Units=m
New Line.LINE2499 Bus1=2470 Bus2=2500 phases=3 Linecode=4c_.12 Length=3.7383 Units=m
New Line.LINE2502 Bus1=2472 Bus2=2503 phases=3 Linecode=2c_.04 Length=0.19402 Units=m
New Line.LINE2504 Bus1=2475 Bus2=2505 phases=3 Linecode=4c_.12 Length=0.56536 Units=m
New Line.LINE2527 Bus1=2500 Bus2=2528 phases=3 Linecode=4c_.12 Length=5.8805 Units=m
New Line.LINE2529 Bus1=2503 Bus2=2530 phases=3 Linecode=2c_.04 Length=0.22897 Units=m
New Line.LINE2531 Bus1=2505 Bus2=2532 phases=3 Linecode=4c_.12 Length=0.65073 Units=m
New Line.LINE2549 Bus1=2524 Bus2=2550 phases=3 Linecode=2c_.04 Length=4.7616 Units=m
New Line.LINE2557 Bus1=2528 Bus2=2558 phases=3 Linecode=2c_.04 Length=8.0228 Units=m
New Line.LINE2559 Bus1=2530 Bus2=2560 phases=3 Linecode=2c_.04 Length=0.31453 Units=m
New Line.LINE2561 Bus1=2532 Bus2=2562 phases=3 Linecode=4c_.12 Length=0.67457 Units=m
New Line.LINE2574 Bus1=2546 Bus2=2575 phases=3 Linecode=2c_.04 Length=7.6576 Units=m
New Line.LINE2575 Bus1=2546 Bus2=2576 phases=3 Linecode=2c_.04 Length=7.6576 Units=m
New Line.LINE2576 Bus1=2546 Bus2=2577 phases=3 Linecode=2c_.04 Length=5.4913 Units=m
New Line.LINE2586 Bus1=2558 Bus2=2587 phases=3 Linecode=2c_.04 Length=4.6801 Units=m
New Line.LINE2591 Bus1=2560 Bus2=2592 phases=3 Linecode=2c_.04 Length=0.15505 Units=m
New Line.LINE2593 Bus1=2561 Bus2=2594 phases=3 Linecode=2c_.04 Length=7.7967 Units=m
New Line.LINE2594 Bus1=2562 Bus2=2595 phases=3 Linecode=4c_.12 Length=0.29415 Units=m
New Line.LINE2598 Bus1=2566 Bus2=2599 phases=3 Linecode=2c_.04 Length=5.34 Units=m
New Line.LINE2599 Bus1=2566 Bus2=2600 phases=3 Linecode=2c_.04 Length=5.8513 Units=m
New Line.LINE2608 Bus1=2577 Bus2=2609 phases=3 Linecode=2c_.04 Length=2.6735 Units=m
New Line.LINE2609 Bus1=2577 Bus2=2610 phases=3 Linecode=2c_.04 Length=2.6735 Units=m
New Line.LINE2624 Bus1=2592 Bus2=2625 phases=3 Linecode=2c_.04 Length=0.19164 Units=m