New Load.LOAD176_1 Phases=1 Bus1=176_124.3 kV=0.23 kW=1 PF=0.95
New Load.LOAD176_2 Phases=1 Bus1=176_142.2 kV=0.23 kW=1 PF=0.95
New Load.LOAD176_3 Phases=1 Bus1=176_216.1 kV=0.23 kW=1 PF=0.95
New Load.LOAD176_4 Phases=1 Bus1=176_220.1 kV=0.23 kW=1 PF=0.95
New Load.LOAD176_5 Phases=1 Bus1=176_307.3 kV=0.23 kW=1 PF=0.95
New Load.LOAD176_6 Phases=1 Bus1=176_318.2 kV=0.23 kW=1 PF=0.95
New Load.LOAD176_7 Phases=1 Bus1=176_345.2 kV=0.23 kW=1 PF=0.95
New Load.LOAD176_8 Phases=1 Bus1=176_401.3 kV=0.23 kW=1 PF=0.95
New Load.LOAD176_9 Phases=1 Bus1=176_410.2 kV=0.23 kW=1 PF=0.95
New Load.LOAD176_10 Phases=1 Bus1=176_440.2 kV=0.23 kW=1 PF=0.95
New Load.LOAD176_11 Phases=1 Bus1=176_441.2 kV=0.23 kW=1 PF=0.95
New Load.LOAD176_12 Phases=1 Bus1=176_512.2 kV=0.23 kW=1 PF=0.95
New Load.LOAD176_13 Phases=1 Bus1=176_575.2 kV=0.23 kW=1 PF=0.95
New Load.LOAD176_14 Phases=1 Bus1=176_576.2 kV=0.23 kW=1 PF=0.95
New Load.LOAD176_15 Phases=1 Bus1=176_577.1 kV=0.23 kW=1 PF=0.95
New Load.LOAD176_16 Phases=1 Bus1=176_579.3 kV=0.23 kW=1 PF=0.95
New Load.LOAD176_17 Phases=1 Bus1=176_620.2 kV=0.23 kW=1 PF=0.95
New Load.LOAD176_18 Phases=1 Bus1=176_714.3 kV=0.23 kW=1 PF=0.95
New Load.LOAD176_19 Phases=1 Bus1=176_728.1 kV=0.23 kW=1 PF=0.95
New Load.LOAD176_20 Phases=1 Bus1=176_754.3 kV=0.23 kW=1 PF=0.95
New Load.LOAD176_21 Phases=1 Bus1=176_755.3 kV=0.23 kW=1 PF=0.95
New Load.LOAD176_22 Phases=1 Bus1=176_776.1 kV=0.23 kW=1 PF=0.95
New Load.LOAD176_23 Phases=1 Bus1=176_777.1 kV=0.23 kW=1 PF=0.95
New Load.LOAD176_24 Phases=1 Bus1=176_785.3 kV=0.23 kW=1 PF=0.95
New Load.LOAD176_25 Phases=1 Bus1=176_786.3 kV=0.23 kW=1 PF=0.95
New Load.LOAD176_26 Phases=1 Bus1=176_799.1 kV=0.23 kW=1 PF=0.95
New Load.LOAD176_27 Phases=1 Bus1=176_809.1 kV=0.23 kW=1 PF=0.95
New Load.LOAD176_28 Phases=1 Bus1=176_810.1 kV=0.23 kW=1 PF=0.95
New Load.LOAD176_29 Phases=1 Bus1=176_838.2 kV=0.23 kW=1 PF=0.95
New Load.LOAD176_30 Phases=1 Bus1=176_842.1 kV=0.23 kW=1 PF=0.95
New Load.LOAD176_31 Phases=1 Bus1=176_843.1 kV=0.23 kW=1 PF=0.95
New Load.LOAD176_32 Phases=1 Bus1=176_871.3 kV=0.23 kW=1 PF=0.95
New Load.LOAD176_33 Phases=1 Bus1=176_887.1 kV=0.23 kW=1 PF=0.95
New Load.LOAD176_34 Phases=1 Bus1=176_930.1 kV=0.23 kW=1 PF=0.95
New Load.LOAD176_35 Phases=1 Bus1=176_931.1 kV=0.23 kW=1 PF=0.95
New Load.LOAD176_36 Phases=1 Bus1=176_968.2 kV=0.23 kW=1 PF=0.95
New Load.LOAD176_37 Phases=1 Bus1=176_980.2 kV=0.23 kW=1 PF=0.95
New Load.LOAD176_38 Phases=1 Bus1=176_1027.3 kV=0.23 kW=1 PF=0.95
New Load.LOAD176_39 Phases=1 Bus1=176_1040.2 kV=0.23 kW=1 PF=0.95
New Load.LOAD176_40 Phases=1 Bus1=176_1041.2 kV=0.23 kW=1 PF=0.95
New Load.LOAD176_41 Phases=1 Bus1=176_1049.2 kV=0.23 kW=1 PF=0.95
New Load.LOAD176_42 Phases=1 Bus1=176_1062.3 kV=0.23 kW=1 PF=0.95
New Load.LOAD176_43 Phases=1 Bus1=176_1075.1 kV=0.23 kW=1 PF=0.95
New Load.LOAD176_44 Phases=1 Bus1=176_1094.2 kV=0.23 kW=1 PF=0.95
New Load.LOAD176_45 Phases=1 Bus1=176_1095.2 kV=0.23 kW=1 PF=0.95
New Load.LOAD176_46 Phases=1 Bus1=176_1105.3 kV=0.23 kW=1 PF=0.95
New Load.LOAD176_47 Phases=1 Bus1=176_1106.3 kV=0.23 kW=1 PF=0.95
New Load.LOAD176_48 Phases=1 Bus1=176_1121.3 kV=0.23 kW=1 PF=0.95
New Load.LOAD176_49 Phases=1 Bus1=176_1146.2 kV=0.23 kW=1 PF=0.95
New Load.LOAD176_50 Phases=1 Bus1=176_1166.3 kV=0.23 kW=1 PF=0.95
New Load.LOAD176_51 Phases=1 Bus1=176_1202.2 kV=0.23 kW=1 PF=0.95
New Load.LOAD176_52 Phases=1 Bus1=176_1203.2 kV=0.23 kW=1 PF=0.95
New Load.LOAD176_53 Phases=1 Bus1=176_1219.1 kV=0.23 kW=1 PF=0.95
New Load.LOAD176_54 Phases=1 Bus1=176_1275.2 kV=0.23 kW=1 PF=0.95
New Load.LOAD176_55 Phases=1 Bus1=176_1317.1 kV=0.23 kW=1 PF=0.95
New Load.LOAD176_56 Phases=1 Bus1=176_1318.1 kV=0.23 kW=1 PF=0.95
New Load.LOAD176_57 Phases=1 Bus1=176_1327.1 kV=0.23 kW=1 PF=0.95
New Load.LOAD176_58 Phases=1 Bus1=176_1330.2 kV=0.23 kW=1 PF=0.95
New Load.LOAD176_59 Phases=1 Bus1=176_1382.3 kV=0.23 kW=1 PF=0.95
New Load.LOAD176_60 Phases=1 Bus1=176_1391.2 kV=0.23 kW=1 PF=0.95
New Load.LOAD176_61 Phases=1 Bus1=176_1405.1 kV=0.23 kW=1 PF=0.95
New Load.LOAD176_62 Phases=1 Bus1=176_1416.2 kV=0.23 kW=1 PF=0.95
New Load.LOAD176_63 Phases=1 Bus1=176_1509.2 kV=0.23 kW=1 PF=0.95
New Load.LOAD176_64 Phases=1 Bus1=176_1511.1 kV=0.23 kW=1 PF=0.95
New Load.LOAD176_65 Phases=1 Bus1=176_1518.3 kV=0.23 kW=1 PF=0.95
New Load.LOAD176_66 Phases=1 Bus1=176_1528.1 kV=0.23 kW=1 PF=0.95
New Load.LOAD176_67 Phases=1 Bus1=176_1550.2 kV=0.23 kW=1 PF=0.95
New Load.LOAD176_68 Phases=1 Bus1=176_1555.2 kV=0.23 kW=1 PF=0.95
New Load.LOAD176_69 Phases=1 Bus1=176_1584.2 kV=0.23 kW=1 PF=0.95
New Load.LOAD176_70 Phases=1 Bus1=176_1588.3 kV=0.23 kW=1 PF=0.95
New Load.LOAD176_71 Phases=1 Bus1=176_1606.1 kV=0.23 kW=1 PF=0.95
New Load.LOAD176_72 Phases=1 Bus1=176_1616.3 kV=0.23 kW=1 PF=0.95
New Load.LOAD176_73 Phases=1 Bus1=176_1617.3 kV=0.23 kW=1 PF=0.95
New Load.LOAD176_74 Phases=1 Bus1=176_1631.1 kV=0.23 kW=1 PF=0.95
New Load.LOAD176_75 Phases=1 Bus1=176_1671.1 kV=0.23 kW=1 PF=0.95
New Load.LOAD176_76 Phases=1 Bus1=176_1672.1 kV=0.23 kW=1 PF=0.95
New Load.LOAD176_77 Phases=1 Bus1=176_1718.2 kV=0.23 kW=1 PF=0.95
New Load.LOAD176_78 Phases=1 Bus1=176_1805.3 kV=0.23 kW=1 PF=0.95
New Load.LOAD176_79 Phases=1 Bus1=176_1808.3 kV=0.23 kW=1 PF=0.95
New Load.LOAD176_80 Phases=1 Bus1=176_1836.3 kV=0.23 kW=1 PF=0.95
New Load.LOAD176_81 Phases=1 Bus1=176_1839.3 kV=0.23 kW=1 PF=0.95
New Load.LOAD176_82 Phases=1 Bus1=176_1841.1 kV=0.23 kW=1 PF=0.95
New Load.LOAD176_83 Phases=1 Bus1=176_1845.1 kV=0.23 kW=1 PF=0.95
New Load.LOAD176_84 Phases=1 Bus1=176_1857.2 kV=0.23 kW=1 PF=0.95
New Load.LOAD176_85 Phases=1 Bus1=176_1862.2 kV=0.23 kW=1 PF=0.95
New Load.LOAD176_86 Phases=1 Bus1=176_1873.3 kV=0.23 kW=1 PF=0.95
New Load.LOAD176_87 Phases=1 Bus1=176_1885.1 kV=0.23 kW=1 PF=0.95
New Load.LOAD176_88 Phases=1 Bus1=176_1954.3 kV=0.23 kW=1 PF=0.95
New Load.LOAD176_89 Phases=1 Bus1=176_1972.2 kV=0.23 kW=1 PF=0.95
New Load.LOAD176_90 Phases=1 Bus1=176_2005.3 kV=0.23 kW=1 PF=0.95
New Load.LOAD176_91 Phases=1 Bus1=176_2006.3 kV=0.23 kW=1 PF=0.95
New Load.LOAD176_92 Phases=1 Bus1=176_2029.3 kV=0.23 kW=1 PF=0.95
New Load.LOAD176_93 Phases=1 Bus1=176_2031.2 kV=0.23 kW=1 PF=0.95
New Load.LOAD176_94 Phases=1 Bus1=176_2046.3 kV=0.23 kW=1 PF=0.95
New Load.LOAD176_95 Phases=1 Bus1=176_2063.3 kV=0.23 kW=1 PF=0.95
New Load.LOAD176_96 Phases=1 Bus1=176_2073.3 kV=0.23 kW=1 PF=0.95
New Load.LOAD176_97 Phases=1 Bus1=176_2081.2 kV=0.23 kW=1 PF=0.95
New Load.LOAD176_98 Phases=1 Bus1=176_2100.1 kV=0.23 kW=1 PF=0.95
New Load.LOAD176_99 Phases=1 Bus1=176_2101.1 kV=0.23 kW=1 PF=0.95
New Load.LOAD176_100 Phases=1 Bus1=176_2103.3 kV=0.23 kW=1 PF=0.95
New Load.LOAD176_101 Phases=1 Bus1=176_2105.3 kV=0.23 kW=1 PF=0.95
New Load.LOAD176_102 Phases=1 Bus1=176_2106.2 kV=0.23 kW=1 PF=0.95
New Load.LOAD176_103 Phases=1 Bus1=176_2108.2 kV=0.23 kW=1 PF=0.95
New Load.LOAD176_104 Phases=1 Bus1=176_2115.1 kV=0.23 kW=1 PF=0.95
New Load.LOAD176_105 Phases=1 Bus1=176_2119.1 kV=0.23 kW=1 PF=0.95
New Load.LOAD176_106 Phases=1 Bus1=176_2121.2 kV=0.23 kW=1 PF=0.95
New Load.LOAD176_107 Phases=1 Bus1=176_2126.3 kV=0.23 kW=1 PF=0.95
New Load.LOAD176_108 Phases=1 Bus1=176_2127.3 kV=0.23 kW=1 PF=0.95
New Load.LOAD176_109 Phases=1 Bus1=176_2131.1 kV=0.23 kW=1 PF=0.95
New Load.LOAD176_110 Phases=1 Bus1=176_2132.1 kV=0.23 kW=1 PF=0.95
New Load.LOAD176_111 Phases=1 Bus1=176_2133.1 kV=0.23 kW=1 PF=0.95
New Load.LOAD176_112 Phases=1 Bus1=176_2172.3 kV=0.23 kW=1 PF=0.95
New Load.LOAD176_113 Phases=1 Bus1=176_2181.2 kV=0.23 kW=1 PF=0.95
New Load.LOAD176_114 Phases=1 Bus1=176_2182.2 kV=0.23 kW=1 PF=0.95
New Load.LOAD176_115 Phases=1 Bus1=176_2231.3 kV=0.23 kW=1 PF=0.95
New Load.LOAD176_116 Phases=1 Bus1=176_2250.3 kV=0.23 kW=1 PF=0.95
New Load.LOAD176_117 Phases=1 Bus1=176_2254.2 kV=0.23 kW=1 PF=0.95
New Load.LOAD176_118 Phases=1 Bus1=176_2255.2 kV=0.23 kW=1 PF=0.95
New Load.LOAD176_119 Phases=1 Bus1=176_2291.2 kV=0.23 kW=1 PF=0.95
New Load.LOAD176_120 Phases=1 Bus1=176_2342.1 kV=0.23 kW=1 PF=0.95
New Load.LOAD176_121 Phases=1 Bus1=176_2370.3 kV=0.23 kW=1 PF=0.95
New Load.LOAD176_122 Phases=1 Bus1=176_2371.3 kV=0.23 kW=1 PF=0.95
New Load.LOAD176_123 Phases=1 Bus1=176_2392.2 kV=0.23 kW=1 PF=0.95
New Load.LOAD176_124 Phases=1 Bus1=176_2393.2 kV=0.23 kW=1 PF=0.95
New Load.LOAD176_125 Phases=1 Bus1=176_2402.2 kV=0.23 kW=1 PF=0.95
New Load.LOAD176_126 Phases=1 Bus1=176_2403.2 kV=0.23 kW=1 PF=0.95
New Load.LOAD176_127 Phases=1 Bus1=176_2430.3 kV=0.23 kW=1 PF=0.95
New Load.LOAD176_128 Phases=1 Bus1=176_2431.3 kV=0.23 kW=1 PF=0.95
New Load.LOAD176_129 Phases=1 Bus1=176_2435.2 kV=0.23 kW=1 PF=0.95
New Load.LOAD176_130 Phases=1 Bus1=176_2461.1 kV=0.23 kW=1 PF=0.95
New Load.LOAD176_131 Phases=1 Bus1=176_2462.3 kV=0.23 kW=1 PF=0.95
New Load.LOAD176_132 Phases=1 Bus1=176_2482.3 kV=0.23 kW=1 PF=0.95
New Load.LOAD176_133 Phases=1 Bus1=176_2484.3 kV=0.23 kW=1 PF=0.95
New Load.LOAD176_134 Phases=1 Bus1=176_2485.3 kV=0.23 kW=1 PF=0.95
New Load.LOAD176_135 Phases=1 Bus1=176_2496.1 kV=0.23 kW=1 PF=0.95
New Load.LOAD176_136 Phases=1 Bus1=176_2550.1 kV=0.23 kW=1 PF=0.95
New Load.LOAD176_137 Phases=1 Bus1=176_2574.1 kV=0.23 kW=1 PF=0.95
New Load.LOAD176_138 Phases=1 Bus1=176_2575.2 kV=0.23 kW=1 PF=0.95
New Load.LOAD176_139 Phases=1 Bus1=176_2576.2 kV=0.23 kW=1 PF=0.95
New Load.LOAD176_140 Phases=1 Bus1=176_2587.1 kV=0.23 kW=1 PF=0.95
New Load.LOAD176_141 Phases=1 Bus1=176_2599.1 kV=0.23 kW=1 PF=0.95
New Load.LOAD176_142 Phases=1 Bus1=176_2600.1 kV=0.23 kW=1 PF=0.95
New Load.LOAD176_143 Phases=1 Bus1=176_2609.2 kV=0.23 kW=1 PF=0.95
New Load.LOAD176_144 Phases=1 Bus1=176_2610.2 kV=0.23 kW=1 PF=0.95
New Load.LOAD176_145 Phases=1 Bus1=176_2640.1 kV=0.23 kW=1 PF=0.95
New Load.LOAD176_146 Phases=1 Bus1=176_2642.1 kV=0.23 kW=1 PF=0.95
New Load.LOAD176_147 Phases=1 Bus1=176_2665.2 kV=0.23 kW=1 PF=0.95
New Load.LOAD176_148 Phases=1 Bus1=176_2676.2 kV=0.23 kW=1 PF=0.95
New Load.LOAD176_149 Phases=1 Bus1=176_2708.2 kV=0.23 kW=1 PF=0.95
New Load.LOAD176_150 Phases=1 Bus1=176_2709.1 kV=0.23 kW=1 PF=0.95
New Load.LOAD176_151 Phases=1 Bus1=176_2732.1 kV=0.23 kW=1 PF=0.95
New Load.LOAD176_152 Phases=1 Bus1=176_2756.1 kV=0.23 kW=1 PF=0.95
New Load.LOAD176_153 Phases=1 Bus1=176_2846.1 kV=0.23 kW=1 PF=0.95
New Load.LOAD176_154 Phases=1 Bus1=176_2858.2 kV=0.23 kW=1 PF=0.95
New Load.LOAD176_155 Phases=1 Bus1=176_2872.3 kV=0.23 kW=1 PF=0.95
New Load.LOAD176_156 Phases=1 Bus1=176_2873.3 kV=0.23 kW=1 PF=0.95
New Load.LOAD176_157 Phases=1 Bus1=176_2881.2 kV=0.23 kW=1 PF=0.95
New Load.LOAD176_158 Phases=1 Bus1=176_2883.3 kV=0.23 kW=1 PF=0.95
New Load.LOAD176_159 Phases=1 Bus1=176_2901.2 kV=0.23 kW=1 PF=0.95
New Load.LOAD176_160 Phases=1 Bus1=176_2902.2 kV=0.23 kW=1 PF=0.95
New Load.LOAD176_161 Phases=1 Bus1=176_2915.2 kV=0.23 kW=1 PF=0.95
New Load.LOAD176_162 Phases=1 Bus1=176_2924.3 kV=0.23 kW=1 PF=0.95
New Load.LOAD176_163 Phases=1 Bus1=176_2925.3 kV=0.23 kW=1 PF=0.95
New Load.LOAD176_164 Phases=1 Bus1=176_2934.2 kV=0.23 kW=1 PF=0.95
New Load.LOAD176_165 Phases=1 Bus1=176_2935.2 kV=0.23 kW=1 PF=0.95
New Load.LOAD176_166 Phases=1 Bus1=176_2936.2 kV=0.23 kW=1 PF=0.95
New Load.LOAD176_167 Phases=1 Bus1=176_2951.2 kV=0.23 kW=1 PF=0.95
New Load.LOAD176_168 Phases=1 Bus1=176_2953.3 kV=0.23 kW=1 PF=0.95
New Load.LOAD176_169 Phases=1 Bus1=176_3023.2 kV=0.23 kW=1 PF=0.95
New Load.LOAD176_170 Phases=1 Bus1=176_3024.2 kV=0.23 kW=1 PF=0.95
New Load.LOAD176_171 Phases=1 Bus1=176_3039.3 kV=0.23 kW=1 PF=0.95
New Load.LOAD176_172 Phases=1 Bus1=176_3040.3 kV=0.23 kW=1 PF=0.95
New Load.LOAD176_173 Phases=1 Bus1=176_3091.1 kV=0.23 kW=1 PF=0.95
New Load.LOAD176_174 Phases=1 Bus1=176_3106.1 kV=0.23 kW=1 PF=0.95
New Load.LOAD176_175 Phases=1 Bus1=176_3130.1 kV=0.23 kW=1 PF=0.95
New Load.LOAD176_176 Phases=1 Bus1=176_3138.1 kV=0.23 kW=1 PF=0.95
New Load.LOAD176_177 Phases=1 Bus1=176_3166.3 kV=0.23 kW=1 PF=0.95
New Load.LOAD176_178 Phases=1 Bus1=176_3198.2 kV=0.23 kW=1 PF=0.95
New Load.LOAD176_179 Phases=1 Bus1=176_3199.2 kV=0.23 kW=1 PF=0.95
New Load.LOAD176_180 Phases=1 Bus1=176_3200.2 kV=0.23 kW=1 PF=0.95
New Load.LOAD176_181 Phases=1 Bus1=176_3220.1 kV=0.23 kW=1 PF=0.95
New Load.LOAD176_182 Phases=1 Bus1=176_3225.1 kV=0.23 kW=1 PF=0.95
New Load.LOAD176_183 Phases=1 Bus1=176_3226.1 kV=0.23 kW=1 PF=0.95
New Load.LOAD176_184 Phases=1 Bus1=176_3246.3 kV=0.23 kW=1 PF=0.95
New Load.LOAD176_185 Phases=1 Bus1=176_3247.3 kV=0.23 kW=1 PF=0.95
New Load.LOAD176_186 Phases=1 Bus1=176_3248.3 kV=0.23 kW=1 PF=0.95
New Load.LOAD176_187 Phases=1 Bus1=176_3249.1 kV=0.23 kW=1 PF=0.95
New Load.LOAD176_188 Phases=1 Bus1=176_3250.1 kV=0.23 kW=1 PF=0.95
New Load.LOAD176_189 Phases=1 Bus1=176_3314.3 kV=0.23 kW=1 PF=0.95
New Load.LOAD176_190 Phases=1 Bus1=176_3335.2 kV=0.23 kW=1 PF=0.95
New Load.LOAD176_191 Phases=1 Bus1=176_3339.2 kV=0.23 kW=1 PF=0.95
New Load.LOAD176_192 Phases=1 Bus1=176_3340.2 kV=0.23 kW=1 PF=0.95
New Load.LOAD176_193 Phases=1 Bus1=176_3341.2 kV=0.23 kW=1 PF=0.95
New Load.LOAD176_194 Phases=1 Bus1=176_3361.2 kV=0.23 kW=1 PF=0.95
New Load.LOAD176_195 Phases=1 Bus1=176_3362.2 kV=0.23 kW=1 PF=0.95
New Load.LOAD176_196 Phases=1 Bus1=176_3407.3 kV=0.23 kW=1 PF=0.95
New Load.LOAD176_197 Phases=1 Bus1=176_3417.3 kV=0.23 kW=1 PF=0.95
New Load.LOAD176_198 Phases=1 Bus1=176_3445.3 kV=0.23 kW=1 PF=0.95
New Load.LOAD176_199 Phases=1 Bus1=176_3479.1 kV=0.23 kW=1 PF=0.95
New Load.LOAD176_200 Phases=1 Bus1=176_3507.3 kV=0.23 kW=1 PF=0.95
New Load.LOAD176_201 Phases=1 Bus1=176_3531.3 kV=0.23 kW=1 PF=0.95
New Load.LOAD176_202 Phases=1 Bus1=176_3535.1 kV=0.23 kW=1 PF=0.95
New Load.LOAD176_203 Phases=1 Bus1=176_3564.1 kV=0.23 kW=1 PF=0.95
New Load.LOAD176_204 Phases=1 Bus1=176_3565.1 kV=0.23 kW=1 PF=0.95
New Load.LOAD176_205 Phases=1 Bus1=176_3576.3 kV=0.23 kW=1 PF=0.95
New Load.LOAD176_206 Phases=1 Bus1=176_3577.3 kV=0.23 kW=1 PF=0.95
New Load.LOAD176_207 Phases=1 Bus1=176_3578.2 kV=0.23 kW=1 PF=0.95
New Load.LOAD176_208 Phases=1 Bus1=176_3579.2 kV=0.23 kW=1 PF=0.95
New Load.LOAD176_209 Phases=1 Bus1=176_3616.3 kV=0.23 kW=1 PF=0.95
New Load.LOAD176_210 Phases=1 Bus1=176_3621.3 kV=0.23 kW=1 PF=0.95
New Load.LOAD176_211 Phases=1 Bus1=176_3659.3 kV=0.23 kW=1 PF=0.95
New Load.LOAD176_212 Phases=1 Bus1=176_3660.3 kV=0.23 kW=1 PF=0.95
New Load.LOAD176_213 Phases=1 Bus1=176_3666.1 kV=0.23 kW=1 PF=0.95
New Load.LOAD176_214 Phases=1 Bus1=176_3674.3 kV=0.23 kW=1 PF=0.95
New Load.LOAD176_215 Phases=1 Bus1=176_3698.3 kV=0.23 kW=1 PF=0.95
New Load.LOAD176_216 Phases=1 Bus1=176_3731.1 kV=0.23 kW=1 PF=0.95
New Load.LOAD176_217 Phases=1 Bus1=176_3750.3 kV=0.23 kW=1 PF=0.95
New Load.LOAD176_218 Phases=1 Bus1=176_3751.3 kV=0.23 kW=1 PF=0.95
New Load.LOAD176_219 Phases=1 Bus1=176_3754.1 kV=0.23 kW=1 PF=0.95
New Load.LOAD176_220 Phases=1 Bus1=176_3755.1 kV=0.23 kW=1 PF=0.95
New Load.LOAD176_221 Phases=1 Bus1=176_3832.3 kV=0.23 kW=1 PF=0.95
New Load.LOAD176_222 Phases=1 Bus1=176_3836.1 kV=0.23 kW=1 PF=0.95
New Load.LOAD176_223 Phases=1 Bus1=176_3855.3 kV=0.23 kW=1 PF=0.95
