New Line.LINE185_1 Bus1=185_1 Bus2=185_2 phases=3 Linecode=4c_.2 Length=0.38058 Units=m
New Line.LINE185_2 Bus1=185_2 Bus2=185_3 phases=3 Linecode=4c_.2 Length=0.067624 Units=m
New Line.LINE185_3 Bus1=185_3 Bus2=185_4 phases=3 Linecode=4c_.2 Length=0.06866 Units=m
New Line.LINE185_4 Bus1=185_4 Bus2=185_5 phases=3 Linecode=4c_.2 Length=0.077103 Units=m
New Line.LINE185_5 Bus1=185_5 Bus2=185_6 phases=3 Linecode=4c_.2 Length=0.077782 Units=m
New Line.LINE185_6 Bus1=185_6 Bus2=185_7 phases=3 Linecode=4c_.2 Length=0.074331 Units=m
New Line.LINE185_7 Bus1=185_7 Bus2=185_8 phases=3 Linecode=4c_.2 Length=0.074791 Units=m
New Line.LINE185_8 Bus1=185_8 Bus2=185_9 phases=3 Linecode=4c_.2 Length=0.063891 Units=m
New Line.LINE185_9 Bus1=185_9 Bus2=185_10 phases=3 Linecode=4c_.2 Length=0.058796 Units=m
New Line.LINE185_10 Bus1=185_10 Bus2=185_11 phases=3 Linecode=4c_.2 Length=0.065192 Units=m
New Line.LINE185_11 Bus1=185_11 Bus2=185_12 phases=3 Linecode=4c_.2 Length=0.21159 Units=m
New Line.LINE185_12 Bus1=185_12 Bus2=185_13 phases=3 Linecode=4c_.2 Length=0.067536 Units=m
New Line.LINE185_13 Bus1=185_13 Bus2=185_14 phases=3 Linecode=4c_.2 Length=1.4546 Units=m
New Line.LINE185_14 Bus1=185_14 Bus2=185_15 phases=3 Linecode=4c_.2 Length=0.045618 Units=m
New Line.LINE185_15 Bus1=185_15 Bus2=185_16 phases=3 Linecode=4c_.2 Length=0.057244 Units=m
New Line.LINE185_16 Bus1=185_16 Bus2=185_17 phases=3 Linecode=4c_.2 Length=0.056295 Units=m
New Line.LINE185_17 Bus1=185_17 Bus2=185_18 phases=3 Linecode=4c_.2 Length=0.28536 Units=m
New Line.LINE185_18 Bus1=185_18 Bus2=185_19 phases=3 Linecode=4c_.2 Length=0.17777 Units=m
New Line.LINE185_19 Bus1=185_19 Bus2=185_20 phases=3 Linecode=4c_.2 Length=0.10977 Units=m
New Line.LINE185_20 Bus1=185_20 Bus2=185_21 phases=3 Linecode=4c_.2 Length=2.0014 Units=m
New Line.LINE185_21 Bus1=185_21 Bus2=185_22 phases=3 Linecode=4c_.2 Length=2.0015 Units=m
New Line.LINE185_22 Bus1=185_22 Bus2=185_23 phases=3 Linecode=4c_.2 Length=0.17557 Units=m
New Line.LINE185_23 Bus1=185_23 Bus2=185_24 phases=3 Linecode=4c_.2 Length=0.13474 Units=m
New Line.LINE185_24 Bus1=185_24 Bus2=185_25 phases=3 Linecode=4c_.2 Length=0.32361 Units=m
New Line.LINE185_25 Bus1=185_25 Bus2=185_26 phases=3 Linecode=4c_.2 Length=1.4575 Units=m
New Line.LINE185_26 Bus1=185_26 Bus2=185_27 phases=3 Linecode=4c_.2 Length=1.2661 Units=m
New Line.LINE185_27 Bus1=185_27 Bus2=185_28 phases=3 Linecode=4c_.2 Length=0.53191 Units=m
New Line.LINE185_28 Bus1=185_28 Bus2=185_29 phases=3 Linecode=4c_.2 Length=0.41121 Units=m
New Line.LINE185_29 Bus1=185_29 Bus2=185_30 phases=3 Linecode=4c_.2 Length=1.5411 Units=m
New Line.LINE185_30 Bus1=185_30 Bus2=185_31 phases=3 Linecode=4c_.2 Length=0.22756 Units=m
New Line.LINE185_31 Bus1=185_31 Bus2=185_32 phases=3 Linecode=4c_.2 Length=0.24205 Units=m
New Line.LINE185_32 Bus1=185_32 Bus2=185_33 phases=3 Linecode=4c_.2 Length=0.18928 Units=m
New Line.LINE185_33 Bus1=185_33 Bus2=185_34 phases=3 Linecode=4c_.2 Length=12.1576 Units=m
New Line.LINE185_34 Bus1=185_34 Bus2=185_35 phases=3 Linecode=2c_.0225_UA Length=8.968 Units=m
New Line.LINE185_35 Bus1=185_34 Bus2=185_36 phases=3 Linecode=4c_.2 Length=3.0248 Units=m
New Line.LINE185_36 Bus1=185_35 Bus2=185_37 phases=3 Linecode=2c_.0225_UA Length=4.7761 Units=m
New Line.LINE185_37 Bus1=185_35 Bus2=185_38 phases=3 Linecode=2c_.0225_UA Length=4.7436 Units=m
New Line.LINE185_38 Bus1=185_36 Bus2=185_39 phases=3 Linecode=4c_.2 Length=0.8268 Units=m
New Line.LINE185_39 Bus1=185_37 Bus2=185_40 phases=3 Linecode=2c_.0225_UA Length=3.5171 Units=m
New Line.LINE185_40 Bus1=185_39 Bus2=185_41 phases=3 Linecode=4c_.2 Length=0.49381 Units=m
New Line.LINE185_41 Bus1=185_41 Bus2=185_42 phases=3 Linecode=4c_.2 Length=1.2362 Units=m
New Line.LINE185_42 Bus1=185_42 Bus2=185_43 phases=3 Linecode=4c_.2 Length=0.87414 Units=m
New Line.LINE185_43 Bus1=185_43 Bus2=185_44 phases=3 Linecode=4c_.2 Length=1.1551 Units=m
New Line.LINE185_44 Bus1=185_44 Bus2=185_45 phases=3 Linecode=4c_.2 Length=1.0658 Units=m
New Line.LINE185_45 Bus1=185_45 Bus2=185_46 phases=3 Linecode=4c_.2 Length=0.75137 Units=m
New Line.LINE185_46 Bus1=185_46 Bus2=185_47 phases=3 Linecode=4c_.2 Length=0.39803 Units=m
New Line.LINE185_47 Bus1=185_47 Bus2=185_48 phases=3 Linecode=4c_.2 Length=1.2636 Units=m
New Line.LINE185_48 Bus1=185_48 Bus2=185_49 phases=3 Linecode=4c_.2 Length=0.76867 Units=m
New Line.LINE185_49 Bus1=185_49 Bus2=185_50 phases=3 Linecode=4c_.2 Length=1.2864 Units=m
New Line.LINE185_50 Bus1=185_50 Bus2=185_51 phases=3 Linecode=4c_.2 Length=0.50674 Units=m
New Line.LINE185_51 Bus1=185_51 Bus2=185_52 phases=3 Linecode=4c_.2 Length=0.39513 Units=m
New Line.LINE185_52 Bus1=185_52 Bus2=185_53 phases=3 Linecode=4c_.2 Length=0.63683 Units=m
New Line.LINE185_53 Bus1=185_53 Bus2=185_54 phases=3 Linecode=4c_.2 Length=0.54498 Units=m
New Line.LINE185_54 Bus1=185_54 Bus2=185_55 phases=3 Linecode=4c_.2 Length=0.67508 Units=m
New Line.LINE185_55 Bus1=185_55 Bus2=185_56 phases=3 Linecode=4c_.2 Length=0.62971 Units=m
New Line.LINE185_56 Bus1=185_56 Bus2=185_57 phases=3 Linecode=4c_.2 Length=0.76485 Units=m
New Line.LINE185_57 Bus1=185_57 Bus2=185_58 phases=3 Linecode=4c_.2 Length=6.2395 Units=m
New Line.LINE185_58 Bus1=185_58 Bus2=185_59 phases=3 Linecode=4c_.2 Length=0.20189 Units=m
New Line.LINE185_59 Bus1=185_58 Bus2=185_60 phases=3 Linecode=4c_.2 Length=22.1629 Units=m
New Line.LINE185_60 Bus1=185_59 Bus2=185_61 phases=3 Linecode=4c_.2 Length=0.22824 Units=m
New Line.LINE185_61 Bus1=185_60 Bus2=185_62 phases=3 Linecode=4c_.2 Length=4.635 Units=m
New Line.LINE185_62 Bus1=185_60 Bus2=185_63 phases=3 Linecode=2c_.0225 Length=1.6273 Units=m
New Line.LINE185_63 Bus1=185_61 Bus2=185_64 phases=3 Linecode=4c_.2 Length=0.21268 Units=m
New Line.LINE185_64 Bus1=185_62 Bus2=185_65 phases=3 Linecode=4c_.2 Length=11.7704 Units=m
New Line.LINE185_65 Bus1=185_62 Bus2=185_66 phases=3 Linecode=4c_.2 Length=0.52292 Units=m
New Line.LINE185_66 Bus1=185_63 Bus2=185_67 phases=3 Linecode=2c_.0225 Length=7.9814 Units=m
New Line.LINE185_67 Bus1=185_64 Bus2=185_68 phases=3 Linecode=4c_.2 Length=0.062769 Units=m
New Line.LINE185_68 Bus1=185_65 Bus2=185_69 phases=3 Linecode=4c_.2 Length=4.1282 Units=m
New Line.LINE185_69 Bus1=185_66 Bus2=185_70 phases=3 Linecode=4c_.2 Length=0.23274 Units=m
New Line.LINE185_70 Bus1=185_67 Bus2=185_71 phases=3 Linecode=2c_.0225 Length=0.3069 Units=m
New Line.LINE185_71 Bus1=185_68 Bus2=185_72 phases=3 Linecode=4c_.2 Length=0.076059 Units=m
New Line.LINE185_72 Bus1=185_69 Bus2=185_73 phases=3 Linecode=4c_.2 Length=2.1914 Units=m
New Line.LINE185_73 Bus1=185_70 Bus2=185_74 phases=3 Linecode=4c_.2 Length=0.32581 Units=m
New Line.LINE185_74 Bus1=185_71 Bus2=185_75 phases=3 Linecode=2c_.0225 Length=0.25397 Units=m
New Line.LINE185_75 Bus1=185_72 Bus2=185_76 phases=3 Linecode=4c_.2 Length=0.065146 Units=m
New Line.LINE185_76 Bus1=185_73 Bus2=185_77 phases=3 Linecode=4c_.2 Length=7.488 Units=m
New Line.LINE185_77 Bus1=185_74 Bus2=185_78 phases=3 Linecode=4c_.2 Length=0.25244 Units=m
New Line.LINE185_78 Bus1=185_75 Bus2=185_79 phases=3 Linecode=2c_.0225 Length=0.18755 Units=m
New Line.LINE185_79 Bus1=185_76 Bus2=185_80 phases=3 Linecode=4c_.2 Length=0.23911 Units=m
New Line.LINE185_80 Bus1=185_77 Bus2=185_81 phases=3 Linecode=4c_.2 Length=0.80042 Units=m
New Line.LINE185_81 Bus1=185_77 Bus2=185_82 phases=3 Linecode=2c_.0225_UA Length=13.253 Units=m
New Line.LINE185_82 Bus1=185_78 Bus2=185_83 phases=3 Linecode=4c_.2 Length=0.3029 Units=m
New Line.LINE185_83 Bus1=185_79 Bus2=185_84 phases=3 Linecode=2c_.0225 Length=0.88365 Units=m
New Line.LINE185_84 Bus1=185_80 Bus2=185_85 phases=3 Linecode=4c_.2 Length=0.71537 Units=m
New Line.LINE185_85 Bus1=185_81 Bus2=185_86 phases=3 Linecode=4c_.2 Length=7.9946 Units=m
New Line.LINE185_86 Bus1=185_81 Bus2=185_87 phases=3 Linecode=2c_.007 Length=0.22847 Units=m
New Line.LINE185_87 Bus1=185_82 Bus2=185_88 phases=3 Linecode=2c_.0225_UA Length=0.59012 Units=m
New Line.LINE185_88 Bus1=185_82 Bus2=185_89 phases=3 Linecode=2c_.0225_UA Length=3.2941 Units=m
New Line.LINE185_89 Bus1=185_83 Bus2=185_90 phases=3 Linecode=4c_.2 Length=0.20728 Units=m
New Line.LINE185_90 Bus1=185_84 Bus2=185_91 phases=3 Linecode=2c_.0225 Length=0.34949 Units=m
New Line.LINE185_91 Bus1=185_85 Bus2=185_92 phases=3 Linecode=4c_.2 Length=0.17998 Units=m
New Line.LINE185_92 Bus1=185_86 Bus2=185_93 phases=3 Linecode=4c_.2 Length=7.9724 Units=m
New Line.LINE185_93 Bus1=185_87 Bus2=185_94 phases=3 Linecode=2c_.007 Length=0.15921 Units=m
New Line.LINE185_94 Bus1=185_88 Bus2=185_95 phases=3 Linecode=2c_.0225_UA Length=2.0112 Units=m
New Line.LINE185_95 Bus1=185_89 Bus2=185_96 phases=3 Linecode=2c_.0225_UA Length=5.086 Units=m
New Line.LINE185_96 Bus1=185_89 Bus2=185_97 phases=3 Linecode=2c_.0225_UA Length=3.4725 Units=m
New Line.LINE185_97 Bus1=185_90 Bus2=185_98 phases=3 Linecode=4c_.2 Length=0.21153 Units=m
New Line.LINE185_98 Bus1=185_91 Bus2=185_99 phases=3 Linecode=2c_.0225 Length=0.11264 Units=m
New Line.LINE185_99 Bus1=185_92 Bus2=185_100 phases=3 Linecode=4c_.2 Length=0.20597 Units=m
New Line.LINE185_100 Bus1=185_93 Bus2=185_101 phases=3 Linecode=4c_.2 Length=9.8981 Units=m
New Line.LINE185_101 Bus1=185_94 Bus2=185_102 phases=3 Linecode=2c_.007 Length=0.188 Units=m
New Line.LINE185_102 Bus1=185_95 Bus2=185_103 phases=3 Linecode=2c_.0225_UA Length=8.2389 Units=m
New Line.LINE185_103 Bus1=185_95 Bus2=185_104 phases=3 Linecode=25_SAC_PSC Length=3.7166 Units=m
New Line.LINE185_104 Bus1=185_96 Bus2=185_105 phases=3 Linecode=2c_.0225_UA Length=2.3439 Units=m
New Line.LINE185_105 Bus1=185_98 Bus2=185_106 phases=3 Linecode=4c_.2 Length=0.13809 Units=m
New Line.LINE185_106 Bus1=185_99 Bus2=185_107 phases=3 Linecode=2c_.0225 Length=0.24093 Units=m
New Line.LINE185_107 Bus1=185_100 Bus2=185_108 phases=3 Linecode=4c_.2 Length=0.19679 Units=m
New Line.LINE185_108 Bus1=185_101 Bus2=185_109 phases=3 Linecode=4c_.2 Length=1.9212 Units=m
New Line.LINE185_109 Bus1=185_102 Bus2=185_110 phases=3 Linecode=2c_.007 Length=0.17253 Units=m
New Line.LINE185_110 Bus1=185_103 Bus2=185_111 phases=3 Linecode=2c_.0225_UA Length=2.793 Units=m
New Line.LINE185_111 Bus1=185_105 Bus2=185_112 phases=3 Linecode=2c_.0225_UA Length=2.6159 Units=m
New Line.LINE185_112 Bus1=185_106 Bus2=185_113 phases=3 Linecode=4c_.2 Length=0.49008 Units=m
New Line.LINE185_113 Bus1=185_107 Bus2=185_114 phases=3 Linecode=2c_.0225 Length=0.62648 Units=m
New Line.LINE185_114 Bus1=185_108 Bus2=185_115 phases=3 Linecode=4c_.2 Length=0.19583 Units=m
New Line.LINE185_115 Bus1=185_109 Bus2=185_116 phases=3 Linecode=4c_.2 Length=1.2108 Units=m
New Line.LINE185_116 Bus1=185_110 Bus2=185_117 phases=3 Linecode=4_PSC Length=0.82702 Units=m
New Line.LINE185_117 Bus1=185_114 Bus2=185_118 phases=3 Linecode=2c_.0225 Length=0.24778 Units=m
New Line.LINE185_118 Bus1=185_115 Bus2=185_119 phases=3 Linecode=4c_.2 Length=0.163 Units=m
New Line.LINE185_119 Bus1=185_116 Bus2=185_120 phases=3 Linecode=4c_.2 Length=1.6158 Units=m
New Line.LINE185_120 Bus1=185_116 Bus2=185_121 phases=3 Linecode=4c_.2 Length=0.26926 Units=m
New Line.LINE185_121 Bus1=185_118 Bus2=185_122 phases=3 Linecode=2c_.0225 Length=2.9244 Units=m
New Line.LINE185_122 Bus1=185_119 Bus2=185_123 phases=3 Linecode=4c_.2 Length=0.12423 Units=m
New Line.LINE185_123 Bus1=185_120 Bus2=185_124 phases=3 Linecode=4c_.2 Length=0.63448 Units=m
New Line.LINE185_124 Bus1=185_121 Bus2=185_125 phases=3 Linecode=4c_.2 Length=0.11207 Units=m
New Line.LINE185_125 Bus1=185_122 Bus2=185_126 phases=3 Linecode=2c_.0225 Length=0.56277 Units=m
New Line.LINE185_126 Bus1=185_123 Bus2=185_127 phases=3 Linecode=4c_.2 Length=2.1015 Units=m
New Line.LINE185_127 Bus1=185_124 Bus2=185_128 phases=3 Linecode=4c_.2 Length=0.78552 Units=m
New Line.LINE185_128 Bus1=185_124 Bus2=185_129 phases=3 Linecode=2c_.0225 Length=1.2102 Units=m
New Line.LINE185_129 Bus1=185_125 Bus2=185_130 phases=3 Linecode=4c_.2 Length=0.42652 Units=m
New Line.LINE185_130 Bus1=185_126 Bus2=185_131 phases=3 Linecode=2c_.0225 Length=0.62639 Units=m
New Line.LINE185_131 Bus1=185_127 Bus2=185_132 phases=3 Linecode=4c_.2 Length=5.9572 Units=m
New Line.LINE185_132 Bus1=185_128 Bus2=185_133 phases=3 Linecode=4c_.2 Length=5.5027 Units=m
New Line.LINE185_133 Bus1=185_128 Bus2=185_134 phases=3 Linecode=2c_.0225 Length=0.19306 Units=m
New Line.LINE185_134 Bus1=185_129 Bus2=185_135 phases=3 Linecode=2c_.0225 Length=2.998 Units=m
New Line.LINE185_135 Bus1=185_130 Bus2=185_136 phases=3 Linecode=4c_.2 Length=0.10585 Units=m
New Line.LINE185_136 Bus1=185_131 Bus2=185_137 phases=3 Linecode=2c_.0225 Length=4.0006 Units=m
New Line.LINE185_137 Bus1=185_132 Bus2=185_138 phases=3 Linecode=4c_.2 Length=2.0908 Units=m
New Line.LINE185_138 Bus1=185_133 Bus2=185_139 phases=3 Linecode=4c_.2 Length=0.1343 Units=m
New Line.LINE185_139 Bus1=185_134 Bus2=185_140 phases=3 Linecode=2c_.0225 Length=0.062769 Units=m
New Line.LINE185_140 Bus1=185_135 Bus2=185_141 phases=3 Linecode=2c_.0225 Length=0.64693 Units=m
New Line.LINE185_141 Bus1=185_136 Bus2=185_142 phases=3 Linecode=4c_.2 Length=0.09443 Units=m
New Line.LINE185_142 Bus1=185_137 Bus2=185_143 phases=3 Linecode=2c_.0225 Length=0.49188 Units=m
New Line.LINE185_143 Bus1=185_138 Bus2=185_144 phases=3 Linecode=4c_.2 Length=0.15345 Units=m
New Line.LINE185_144 Bus1=185_139 Bus2=185_145 phases=3 Linecode=4c_.2 Length=10.1651 Units=m
New Line.LINE185_145 Bus1=185_140 Bus2=185_146 phases=3 Linecode=2c_.0225 Length=0.087046 Units=m
New Line.LINE185_146 Bus1=185_141 Bus2=185_147 phases=3 Linecode=2c_.0225 Length=0.55287 Units=m
New Line.LINE185_147 Bus1=185_142 Bus2=185_148 phases=3 Linecode=4c_.2 Length=0.14801 Units=m
New Line.LINE185_148 Bus1=185_143 Bus2=185_149 phases=3 Linecode=2c_.0225 Length=0.85921 Units=m
New Line.LINE185_149 Bus1=185_144 Bus2=185_150 phases=3 Linecode=4c_.2 Length=0.24606 Units=m
New Line.LINE185_150 Bus1=185_145 Bus2=185_151 phases=3 Linecode=4c_.2 Length=1.7682 Units=m
New Line.LINE185_151 Bus1=185_146 Bus2=185_152 phases=3 Linecode=2c_.0225 Length=0.089376 Units=m
New Line.LINE185_152 Bus1=185_147 Bus2=185_153 phases=3 Linecode=2c_.0225 Length=0.51837 Units=m
New Line.LINE185_153 Bus1=185_148 Bus2=185_154 phases=3 Linecode=4c_.2 Length=0.18085 Units=m
New Line.LINE185_154 Bus1=185_149 Bus2=185_155 phases=3 Linecode=2c_.0225 Length=2.6392 Units=m
New Line.LINE185_155 Bus1=185_150 Bus2=185_156 phases=3 Linecode=4c_.2 Length=0.269 Units=m
New Line.LINE185_156 Bus1=185_151 Bus2=185_157 phases=3 Linecode=4c_.2 Length=8.7682 Units=m
New Line.LINE185_157 Bus1=185_152 Bus2=185_158 phases=3 Linecode=2c_.0225 Length=0.15043 Units=m
New Line.LINE185_158 Bus1=185_153 Bus2=185_159 phases=3 Linecode=2c_.0225 Length=0.59519 Units=m
New Line.LINE185_159 Bus1=185_154 Bus2=185_160 phases=3 Linecode=4c_.2 Length=0.12175 Units=m
New Line.LINE185_160 Bus1=185_155 Bus2=185_161 phases=3 Linecode=2c_.0225 Length=0.46266 Units=m
New Line.LINE185_161 Bus1=185_155 Bus2=185_162 phases=3 Linecode=2c_.0225 Length=2.2551 Units=m
New Line.LINE185_162 Bus1=185_156 Bus2=185_163 phases=3 Linecode=4c_.2 Length=0.21822 Units=m
New Line.LINE185_163 Bus1=185_157 Bus2=185_164 phases=3 Linecode=4c_.2 Length=1.2012 Units=m
New Line.LINE185_164 Bus1=185_157 Bus2=185_165 phases=3 Linecode=2c_.0225_UA Length=0.685 Units=m
New Line.LINE185_165 Bus1=185_158 Bus2=185_166 phases=3 Linecode=2c_.0225 Length=0.16018 Units=m
New Line.LINE185_166 Bus1=185_159 Bus2=185_167 phases=3 Linecode=2c_.0225 Length=0.45664 Units=m
New Line.LINE185_167 Bus1=185_160 Bus2=185_168 phases=3 Linecode=4c_.2 Length=0.12794 Units=m
New Line.LINE185_168 Bus1=185_161 Bus2=185_169 phases=3 Linecode=2c_.0225 Length=0.391 Units=m
New Line.LINE185_169 Bus1=185_163 Bus2=185_170 phases=3 Linecode=4c_.2 Length=2.1478 Units=m
New Line.LINE185_170 Bus1=185_164 Bus2=185_171 phases=3 Linecode=4c_.2 Length=3.757 Units=m
New Line.LINE185_171 Bus1=185_165 Bus2=185_172 phases=3 Linecode=2c_.0225_UA Length=12.0178 Units=m
New Line.LINE185_172 Bus1=185_166 Bus2=185_173 phases=3 Linecode=2c_.0225 Length=0.10414 Units=m
New Line.LINE185_173 Bus1=185_167 Bus2=185_174 phases=3 Linecode=2c_.0225 Length=0.53489 Units=m
New Line.LINE185_174 Bus1=185_168 Bus2=185_175 phases=3 Linecode=4c_.2 Length=0.14384 Units=m
New Line.LINE185_175 Bus1=185_169 Bus2=185_176 phases=3 Linecode=2c_.0225 Length=4.6814 Units=m
New Line.LINE185_176 Bus1=185_170 Bus2=185_177 phases=3 Linecode=4c_.2 Length=11.2265 Units=m
New Line.LINE185_177 Bus1=185_171 Bus2=185_178 phases=3 Linecode=4c_.2 Length=1.4534 Units=m
New Line.LINE185_178 Bus1=185_171 Bus2=185_179 phases=3 Linecode=4c_.2 Length=0.50575 Units=m
New Line.LINE185_179 Bus1=185_172 Bus2=185_180 phases=3 Linecode=2c_.0225_UA Length=0.82395 Units=m
New Line.LINE185_180 Bus1=185_173 Bus2=185_181 phases=3 Linecode=2c_.0225 Length=0.080455 Units=m
New Line.LINE185_181 Bus1=185_174 Bus2=185_182 phases=3 Linecode=2c_.0225 Length=0.3622 Units=m
New Line.LINE185_182 Bus1=185_175 Bus2=185_183 phases=3 Linecode=4c_.2 Length=0.193 Units=m
New Line.LINE185_183 Bus1=185_176 Bus2=185_184 phases=3 Linecode=2c_.0225 Length=2.8811 Units=m
New Line.LINE185_184 Bus1=185_177 Bus2=185_185 phases=3 Linecode=4c_.2 Length=1.8554 Units=m
New Line.LINE185_185 Bus1=185_177 Bus2=185_186 phases=3 Linecode=2c_.007_VIR Length=0.16337 Units=m
New Line.LINE185_186 Bus1=185_178 Bus2=185_187 phases=3 Linecode=4c_.2 Length=3.5039 Units=m
New Line.LINE185_187 Bus1=185_179 Bus2=185_188 phases=3 Linecode=4c_.2 Length=0.087316 Units=m
New Line.LINE185_188 Bus1=185_180 Bus2=185_189 phases=3 Linecode=2c_.0225_UA Length=0.29037 Units=m
New Line.LINE185_189 Bus1=185_180 Bus2=185_190 phases=3 Linecode=2c_.0225_UA Length=0.23386 Units=m
New Line.LINE185_190 Bus1=185_181 Bus2=185_191 phases=3 Linecode=2c_.0225 Length=0.08357 Units=m
New Line.LINE185_191 Bus1=185_182 Bus2=185_192 phases=3 Linecode=2c_.0225 Length=0.32559 Units=m
New Line.LINE185_192 Bus1=185_183 Bus2=185_193 phases=3 Linecode=4c_.2 Length=0.28442 Units=m
New Line.LINE185_193 Bus1=185_185 Bus2=185_194 phases=3 Linecode=4c_.2 Length=15.396 Units=m
New Line.LINE185_194 Bus1=185_186 Bus2=185_195 phases=3 Linecode=2c_.007_VIR Length=0.12133 Units=m
New Line.LINE185_195 Bus1=185_187 Bus2=185_196 phases=3 Linecode=4c_.2 Length=0.98218 Units=m
New Line.LINE185_196 Bus1=185_188 Bus2=185_197 phases=3 Linecode=4c_.2 Length=0.096176 Units=m
New Line.LINE185_197 Bus1=185_189 Bus2=185_198 phases=3 Linecode=2c_.0225_UA Length=2.826 Units=m
New Line.LINE185_198 Bus1=185_190 Bus2=185_199 phases=3 Linecode=2c_.0225_UA Length=1.5774 Units=m
New Line.LINE185_199 Bus1=185_191 Bus2=185_200 phases=3 Linecode=2c_.0225 Length=0.20548 Units=m
New Line.LINE185_200 Bus1=185_192 Bus2=185_201 phases=3 Linecode=2c_.0225 Length=2.017 Units=m
New Line.LINE185_201 Bus1=185_193 Bus2=185_202 phases=3 Linecode=4c_.2 Length=0.32812 Units=m
New Line.LINE185_202 Bus1=185_194 Bus2=185_203 phases=3 Linecode=4c_.2 Length=13.0096 Units=m
New Line.LINE185_203 Bus1=185_194 Bus2=185_204 phases=3 Linecode=2c_.0225 Length=0.18581 Units=m
New Line.LINE185_204 Bus1=185_195 Bus2=185_205 phases=3 Linecode=2c_.007_VIR Length=0.11744 Units=m
New Line.LINE185_205 Bus1=185_196 Bus2=185_206 phases=3 Linecode=4c_.2 Length=1.3656 Units=m
New Line.LINE185_206 Bus1=185_197 Bus2=185_207 phases=3 Linecode=4c_.2 Length=0.10211 Units=m
New Line.LINE185_207 Bus1=185_198 Bus2=185_208 phases=3 Linecode=2c_.0225_UA Length=0.65238 Units=m
New Line.LINE185_208 Bus1=185_199 Bus2=185_209 phases=3 Linecode=2c_.0225_UA Length=0.29827 Units=m
New Line.LINE185_209 Bus1=185_200 Bus2=185_210 phases=3 Linecode=2c_.0225 Length=0.70725 Units=m
New Line.LINE185_210 Bus1=185_201 Bus2=185_211 phases=3 Linecode=2c_.0225 Length=2.8761 Units=m
New Line.LINE185_211 Bus1=185_202 Bus2=185_212 phases=3 Linecode=4c_.2 Length=0.33 Units=m
New Line.LINE185_212 Bus1=185_203 Bus2=185_213 phases=3 Linecode=4c_.2 Length=6.9174 Units=m
New Line.LINE185_213 Bus1=185_204 Bus2=185_214 phases=3 Linecode=2c_.0225 Length=0.15546 Units=m
New Line.LINE185_214 Bus1=185_205 Bus2=185_215 phases=3 Linecode=2c_.007_VIR Length=0.21125 Units=m
New Line.LINE185_215 Bus1=185_206 Bus2=185_216 phases=3 Linecode=4c_.2 Length=6.0601 Units=m
New Line.LINE185_216 Bus1=185_206 Bus2=185_217 phases=3 Linecode=2c_.007_VIR Length=0.16548 Units=m
New Line.LINE185_217 Bus1=185_207 Bus2=185_218 phases=3 Linecode=4c_.2 Length=0.19131 Units=m
New Line.LINE185_218 Bus1=185_208 Bus2=185_219 phases=3 Linecode=2c_.0225_UA Length=0.35698 Units=m
New Line.LINE185_219 Bus1=185_209 Bus2=185_220 phases=3 Linecode=2c_.0225_UA Length=0.40914 Units=m
New Line.LINE185_220 Bus1=185_209 Bus2=185_221 phases=3 Linecode=2c_.0225_UA Length=3.9482 Units=m
New Line.LINE185_221 Bus1=185_210 Bus2=185_222 phases=3 Linecode=2c_.0225 Length=2.4815 Units=m
New Line.LINE185_222 Bus1=185_211 Bus2=185_223 phases=3 Linecode=2c_.0225 Length=0.5592 Units=m
New Line.LINE185_223 Bus1=185_213 Bus2=185_224 phases=3 Linecode=4c_.2 Length=0.70377 Units=m
New Line.LINE185_224 Bus1=185_213 Bus2=185_225 phases=3 Linecode=4c_.2 Length=5.9316 Units=m
New Line.LINE185_225 Bus1=185_214 Bus2=185_226 phases=3 Linecode=2c_.0225 Length=0.15788 Units=m
New Line.LINE185_226 Bus1=185_215 Bus2=185_227 phases=3 Linecode=2c_.007_VIR Length=0.07433 Units=m
New Line.LINE185_227 Bus1=185_216 Bus2=185_228 phases=3 Linecode=4c_.2 Length=1.6985 Units=m
New Line.LINE185_228 Bus1=185_217 Bus2=185_229 phases=3 Linecode=2c_.007_VIR Length=0.070603 Units=m
New Line.LINE185_229 Bus1=185_218 Bus2=185_230 phases=3 Linecode=4c_.2 Length=0.1118 Units=m
New Line.LINE185_230 Bus1=185_219 Bus2=185_231 phases=3 Linecode=2c_.0225_UA Length=0.44113 Units=m
New Line.LINE185_231 Bus1=185_219 Bus2=185_232 phases=3 Linecode=2c_.0225_UA Length=3.0119 Units=m
New Line.LINE185_232 Bus1=185_220 Bus2=185_233 phases=3 Linecode=2c_.0225_UA Length=0.13507 Units=m
New Line.LINE185_233 Bus1=185_222 Bus2=185_234 phases=3 Linecode=2c_.0225 Length=0.67735 Units=m
New Line.LINE185_234 Bus1=185_223 Bus2=185_235 phases=3 Linecode=2c_.0225 Length=0.14278 Units=m
New Line.LINE185_235 Bus1=185_225 Bus2=185_236 phases=3 Linecode=4c_.2 Length=9.8319 Units=m
New Line.LINE185_236 Bus1=185_226 Bus2=185_237 phases=3 Linecode=2c_.0225 Length=0.91367 Units=m
New Line.LINE185_237 Bus1=185_227 Bus2=185_238 phases=3 Linecode=2c_.007_VIR Length=0.069426 Units=m
New Line.LINE185_238 Bus1=185_228 Bus2=185_239 phases=3 Linecode=4c_.2 Length=1.5033 Units=m
New Line.LINE185_239 Bus1=185_229 Bus2=185_240 phases=3 Linecode=2c_.007_VIR Length=0.057308 Units=m
New Line.LINE185_240 Bus1=185_230 Bus2=185_241 phases=3 Linecode=4c_.2 Length=0.13593 Units=m
New Line.LINE185_241 Bus1=185_231 Bus2=185_242 phases=3 Linecode=2c_.0225_UA Length=0.26148 Units=m
New Line.LINE185_242 Bus1=185_233 Bus2=185_243 phases=3 Linecode=2c_.0225_UA Length=0.16015 Units=m
New Line.LINE185_243 Bus1=185_234 Bus2=185_244 phases=3 Linecode=2c_.0225 Length=0.59713 Units=m
New Line.LINE185_244 Bus1=185_235 Bus2=185_245 phases=3 Linecode=2c_.0225 Length=0.20671 Units=m
New Line.LINE185_245 Bus1=185_236 Bus2=185_246 phases=3 Linecode=25_SAC_PSC Length=1.5885 Units=m
New Line.LINE185_246 Bus1=185_236 Bus2=185_247 phases=3 Linecode=4c_.2 Length=3.0902 Units=m
New Line.LINE185_247 Bus1=185_237 Bus2=185_248 phases=3 Linecode=2c_.0225 Length=0.087919 Units=m
New Line.LINE185_248 Bus1=185_238 Bus2=185_249 phases=3 Linecode=2c_.007_VIR Length=0.116 Units=m
New Line.LINE185_249 Bus1=185_239 Bus2=185_250 phases=3 Linecode=4c_.2 Length=1.5362 Units=m
New Line.LINE185_250 Bus1=185_240 Bus2=185_251 phases=3 Linecode=2c_.007_VIR Length=0.15253 Units=m
New Line.LINE185_251 Bus1=185_241 Bus2=185_252 phases=3 Linecode=4c_.2 Length=0.18346 Units=m
New Line.LINE185_252 Bus1=185_242 Bus2=185_253 phases=3 Linecode=2c_.0225_UA Length=0.11947 Units=m
New Line.LINE185_253 Bus1=185_243 Bus2=185_254 phases=3 Linecode=2c_.0225_UA Length=0.2182 Units=m
New Line.LINE185_254 Bus1=185_244 Bus2=185_255 phases=3 Linecode=2c_.0225 Length=0.56985 Units=m
New Line.LINE185_255 Bus1=185_245 Bus2=185_256 phases=3 Linecode=2c_.0225 Length=0.24962 Units=m
New Line.LINE185_256 Bus1=185_246 Bus2=185_257 phases=3 Linecode=25_SAC_PSC Length=12.0157 Units=m
New Line.LINE185_257 Bus1=185_247 Bus2=185_258 phases=3 Linecode=4_XC Length=0.061461 Units=m
New Line.LINE185_258 Bus1=185_247 Bus2=185_259 phases=3 Linecode=4c_.2 Length=5.7929 Units=m
New Line.LINE185_259 Bus1=185_248 Bus2=185_260 phases=3 Linecode=2c_.0225 Length=0.14827 Units=m
New Line.LINE185_260 Bus1=185_249 Bus2=185_261 phases=3 Linecode=2c_.007_VIR Length=0.092005 Units=m
New Line.LINE185_261 Bus1=185_250 Bus2=185_262 phases=3 Linecode=4c_.2 Length=0.81177 Units=m
New Line.LINE185_262 Bus1=185_251 Bus2=185_263 phases=3 Linecode=2c_.007_VIR Length=0.056729 Units=m
New Line.LINE185_263 Bus1=185_252 Bus2=185_264 phases=3 Linecode=4c_.2 Length=0.14204 Units=m
New Line.LINE185_264 Bus1=185_253 Bus2=185_265 phases=3 Linecode=2c_.0225_UA Length=0.19616 Units=m
New Line.LINE185_265 Bus1=185_254 Bus2=185_266 phases=3 Linecode=2c_.0225_UA Length=0.24916 Units=m
New Line.LINE185_266 Bus1=185_255 Bus2=185_267 phases=3 Linecode=2c_.0225 Length=0.61 Units=m
New Line.LINE185_267 Bus1=185_256 Bus2=185_268 phases=3 Linecode=2c_.0225 Length=0.20624 Units=m
New Line.LINE185_268 Bus1=185_257 Bus2=185_269 phases=3 Linecode=25_SAC_PSC Length=0.18113 Units=m
New Line.LINE185_269 Bus1=185_257 Bus2=185_270 phases=3 Linecode=2c_.0225_UA Length=0.59005 Units=m
New Line.LINE185_270 Bus1=185_258 Bus2=185_271 phases=3 Linecode=4_XC Length=0.0614 Units=m
New Line.LINE185_271 Bus1=185_259 Bus2=185_272 phases=3 Linecode=4c_.2 Length=4.0066 Units=m
New Line.LINE185_272 Bus1=185_260 Bus2=185_273 phases=3 Linecode=2c_.0225 Length=0.22464 Units=m
New Line.LINE185_273 Bus1=185_261 Bus2=185_274 phases=3 Linecode=2c_.007_VIR Length=0.099925 Units=m
New Line.LINE185_274 Bus1=185_262 Bus2=185_275 phases=3 Linecode=4c_.2 Length=0.66271 Units=m
New Line.LINE185_275 Bus1=185_263 Bus2=185_276 phases=3 Linecode=2c_.007_VIR Length=0.20438 Units=m
New Line.LINE185_276 Bus1=185_264 Bus2=185_277 phases=3 Linecode=4c_.2 Length=0.13962 Units=m
New Line.LINE185_277 Bus1=185_265 Bus2=185_278 phases=3 Linecode=2c_.0225_UA Length=0.88419 Units=m
New Line.LINE185_278 Bus1=185_266 Bus2=185_279 phases=3 Linecode=2c_.0225_UA Length=0.80943 Units=m
New Line.LINE185_279 Bus1=185_267 Bus2=185_280 phases=3 Linecode=2c_.0225 Length=0.41665 Units=m
New Line.LINE185_280 Bus1=185_268 Bus2=185_281 phases=3 Linecode=2c_.0225 Length=0.33329 Units=m
New Line.LINE185_281 Bus1=185_269 Bus2=185_282 phases=3 Linecode=25_SAC_PSC Length=0.10448 Units=m
New Line.LINE185_282 Bus1=185_270 Bus2=185_283 phases=3 Linecode=2c_.0225_UA Length=0.17328 Units=m
New Line.LINE185_283 Bus1=185_271 Bus2=185_284 phases=3 Linecode=4_XC Length=0.061774 Units=m
New Line.LINE185_284 Bus1=185_272 Bus2=185_285 phases=3 Linecode=4c_.2 Length=1.4993 Units=m
New Line.LINE185_285 Bus1=185_273 Bus2=185_286 phases=3 Linecode=2c_.0225 Length=6.4599 Units=m
New Line.LINE185_286 Bus1=185_274 Bus2=185_287 phases=3 Linecode=2c_.007_VIR Length=0.081609 Units=m
New Line.LINE185_287 Bus1=185_275 Bus2=185_288 phases=3 Linecode=4c_.2 Length=9.7981 Units=m
New Line.LINE185_288 Bus1=185_276 Bus2=185_289 phases=3 Linecode=4_PSC Length=0.1441 Units=m
New Line.LINE185_289 Bus1=185_277 Bus2=185_290 phases=3 Linecode=4c_.2 Length=0.13842 Units=m
New Line.LINE185_290 Bus1=185_278 Bus2=185_291 phases=3 Linecode=2c_.0225_UA Length=0.45248 Units=m
New Line.LINE185_291 Bus1=185_279 Bus2=185_292 phases=3 Linecode=2c_.0225_UA Length=0.33159 Units=m
New Line.LINE185_292 Bus1=185_280 Bus2=185_293 phases=3 Linecode=2c_.0225 Length=0.47985 Units=m
New Line.LINE185_293 Bus1=185_281 Bus2=185_294 phases=3 Linecode=2c_.0225 Length=2.3217 Units=m
New Line.LINE185_294 Bus1=185_282 Bus2=185_295 phases=3 Linecode=25_SAC_PSC Length=0.1048 Units=m
New Line.LINE185_295 Bus1=185_283 Bus2=185_296 phases=3 Linecode=2c_.0225_UA Length=0.17201 Units=m
New Line.LINE185_296 Bus1=185_284 Bus2=185_297 phases=3 Linecode=4_XC Length=0.061032 Units=m
New Line.LINE185_297 Bus1=185_285 Bus2=185_298 phases=3 Linecode=4c_.2 Length=0.78849 Units=m
New Line.LINE185_298 Bus1=185_286 Bus2=185_299 phases=3 Linecode=2c_.0225 Length=2.6962 Units=m
New Line.LINE185_299 Bus1=185_287 Bus2=185_300 phases=3 Linecode=2c_.007_VIR Length=0.1272 Units=m
New Line.LINE185_300 Bus1=185_288 Bus2=185_301 phases=3 Linecode=2c_.0225 Length=0.37726 Units=m
New Line.LINE185_301 Bus1=185_288 Bus2=185_302 phases=3 Linecode=4c_.2 Length=0.72046 Units=m
New Line.LINE185_302 Bus1=185_289 Bus2=185_303 phases=3 Linecode=4_PSC Length=0.081154 Units=m
New Line.LINE185_303 Bus1=185_290 Bus2=185_304 phases=3 Linecode=4c_.2 Length=0.1499 Units=m
New Line.LINE185_304 Bus1=185_291 Bus2=185_305 phases=3 Linecode=2c_.0225_UA Length=0.30424 Units=m
New Line.LINE185_305 Bus1=185_292 Bus2=185_306 phases=3 Linecode=2c_.0225_UA Length=0.22395 Units=m
New Line.LINE185_306 Bus1=185_293 Bus2=185_307 phases=3 Linecode=2c_.0225 Length=0.66571 Units=m
New Line.LINE185_307 Bus1=185_294 Bus2=185_308 phases=3 Linecode=2c_.0225 Length=3.4165 Units=m
New Line.LINE185_308 Bus1=185_295 Bus2=185_309 phases=3 Linecode=25_SAC_PSC Length=0.15822 Units=m
New Line.LINE185_309 Bus1=185_296 Bus2=185_310 phases=3 Linecode=2c_.0225_UA Length=0.15556 Units=m
New Line.LINE185_310 Bus1=185_297 Bus2=185_311 phases=3 Linecode=4_XC Length=0.061001 Units=m
New Line.LINE185_311 Bus1=185_298 Bus2=185_312 phases=3 Linecode=4c_.2 Length=5.8841 Units=m
New Line.LINE185_312 Bus1=185_299 Bus2=185_313 phases=3 Linecode=2c_.0225 Length=2.3583 Units=m
New Line.LINE185_313 Bus1=185_300 Bus2=185_314 phases=3 Linecode=2c_.007_VIR Length=0.98684 Units=m
New Line.LINE185_314 Bus1=185_301 Bus2=185_315 phases=3 Linecode=2c_.0225 Length=0.13918 Units=m
New Line.LINE185_315 Bus1=185_302 Bus2=185_316 phases=3 Linecode=2c_.0225 Length=0.103 Units=m
New Line.LINE185_316 Bus1=185_302 Bus2=185_317 phases=3 Linecode=4c_.2 Length=2.143 Units=m