New Load.LOAD185_1 Phases=1 Bus1=185_38.3 kV=0.23 kW=1 PF=0.95
New Load.LOAD185_2 Phases=1 Bus1=185_40.3 kV=0.23 kW=1 PF=0.95
New Load.LOAD185_3 Phases=1 Bus1=185_97.2 kV=0.23 kW=1 PF=0.95
New Load.LOAD185_4 Phases=1 Bus1=185_104.3 kV=0.23 kW=1 PF=0.95
New Load.LOAD185_5 Phases=1 Bus1=185_111.3 kV=0.23 kW=1 PF=0.95
New Load.LOAD185_6 Phases=1 Bus1=185_112.2 kV=0.23 kW=1 PF=0.95
New Load.LOAD185_7 Phases=1 Bus1=185_162.1 kV=0.23 kW=1 PF=0.95
New Load.LOAD185_8 Phases=1 Bus1=185_184.1 kV=0.23 kW=1 PF=0.95
New Load.LOAD185_9 Phases=1 Bus1=185_221.3 kV=0.23 kW=1 PF=0.95
New Load.LOAD185_10 Phases=1 Bus1=185_232.1 kV=0.23 kW=1 PF=0.95
New Load.LOAD185_11 Phases=1 Bus1=185_353.1 kV=0.23 kW=1 PF=0.95
New Load.LOAD185_12 Phases=1 Bus1=185_368.1 kV=0.23 kW=1 PF=0.95
New Load.LOAD185_13 Phases=1 Bus1=185_416.2 kV=0.23 kW=1 PF=0.95
New Load.LOAD185_14 Phases=1 Bus1=185_471.3 kV=0.23 kW=1 PF=0.95
New Load.LOAD185_15 Phases=1 Bus1=185_495.3 kV=0.23 kW=1 PF=0.95
New Load.LOAD185_16 Phases=1 Bus1=185_497.3 kV=0.23 kW=1 PF=0.95
New Load.LOAD185_17 Phases=1 Bus1=185_516.3 kV=0.23 kW=1 PF=0.95
New Load.LOAD185_18 Phases=1 Bus1=185_581.2 kV=0.23 kW=1 PF=0.95
New Load.LOAD185_19 Phases=1 Bus1=185_602.3 kV=0.23 kW=1 PF=0.95
New Load.LOAD185_20 Phases=1 Bus1=185_610.2 kV=0.23 kW=1 PF=0.95
New Load.LOAD185_21 Phases=1 Bus1=185_670.1 kV=0.23 kW=1 PF=0.95
New Load.LOAD185_22 Phases=1 Bus1=185_677.3 kV=0.23 kW=1 PF=0.95
New Load.LOAD185_23 Phases=1 Bus1=185_726.3 kV=0.23 kW=1 PF=0.95
New Load.LOAD185_24 Phases=1 Bus1=185_729.2 kV=0.23 kW=1 PF=0.95
New Load.LOAD185_25 Phases=1 Bus1=185_773.2 kV=0.23 kW=1 PF=0.95
New Load.LOAD185_26 Phases=1 Bus1=185_799.3 kV=0.23 kW=1 PF=0.95
New Load.LOAD185_27 Phases=1 Bus1=185_819.2 kV=0.23 kW=1 PF=0.95
New Load.LOAD185_28 Phases=1 Bus1=185_841.2 kV=0.23 kW=1 PF=0.95
New Load.LOAD185_29 Phases=1 Bus1=185_847.2 kV=0.23 kW=1 PF=0.95
New Load.LOAD185_30 Phases=1 Bus1=185_849.3 kV=0.23 kW=1 PF=0.95
New Load.LOAD185_31 Phases=1 Bus1=185_852.3 kV=0.23 kW=1 PF=0.95
New Load.LOAD185_32 Phases=1 Bus1=185_854.3 kV=0.23 kW=1 PF=0.95
New Load.LOAD185_33 Phases=1 Bus1=185_864.1 kV=0.23 kW=1 PF=0.95
New Load.LOAD185_34 Phases=1 Bus1=185_882.2 kV=0.23 kW=1 PF=0.95
New Load.LOAD185_35 Phases=1 Bus1=185_894.1 kV=0.23 kW=1 PF=0.95
New Load.LOAD185_36 Phases=1 Bus1=185_897.2 kV=0.23 kW=1 PF=0.95
New Load.LOAD185_37 Phases=1 Bus1=185_936.2 kV=0.23 kW=1 PF=0.95
New Load.LOAD185_38 Phases=1 Bus1=185_948.3 kV=0.23 kW=1 PF=0.95
New Load.LOAD185_39 Phases=1 Bus1=185_953.1 kV=0.23 kW=1 PF=0.95
New Load.LOAD185_40 Phases=1 Bus1=185_964.3 kV=0.23 kW=1 PF=0.95
New Load.LOAD185_41 Phases=1 Bus1=185_976.1 kV=0.23 kW=1 PF=0.95
New Load.LOAD185_42 Phases=1 Bus1=185_983.1 kV=0.23 kW=1 PF=0.95
