New Line.LINE53_1 Bus1=53_1 Bus2=53_2 phases=3 Linecode=4c_.2_SAC Length=0.75249 Units=m
New Line.LINE53_2 Bus1=53_2 Bus2=53_3 phases=3 Linecode=4c_.2_SAC Length=0.058188 Units=m
New Line.LINE53_3 Bus1=53_3 Bus2=53_4 phases=3 Linecode=4c_.2_SAC Length=0.048417 Units=m
New Line.LINE53_4 Bus1=53_4 Bus2=53_5 phases=3 Linecode=4c_.2_SAC Length=0.048795 Units=m
New Line.LINE53_5 Bus1=53_5 Bus2=53_6 phases=3 Linecode=4c_.2_SAC Length=0.044654 Units=m
New Line.LINE53_6 Bus1=53_6 Bus2=53_7 phases=3 Linecode=4c_.2_SAC Length=0.053852 Units=m
New Line.LINE53_7 Bus1=53_7 Bus2=53_8 phases=3 Linecode=4c_.2_SAC Length=0.04589 Units=m
New Line.LINE53_8 Bus1=53_8 Bus2=53_9 phases=3 Linecode=4c_.2_SAC Length=0.037015 Units=m
New Line.LINE53_9 Bus1=53_9 Bus2=53_10 phases=3 Linecode=4c_.2_SAC Length=0.060531 Units=m
New Line.LINE53_10 Bus1=53_10 Bus2=53_11 phases=3 Linecode=4c_.2_SAC Length=2.3662 Units=m
New Line.LINE53_11 Bus1=53_11 Bus2=53_12 phases=3 Linecode=4c_.2_SAC Length=0.06316 Units=m
New Line.LINE53_12 Bus1=53_12 Bus2=53_13 phases=3 Linecode=4c_.2_SAC Length=0.059539 Units=m
New Line.LINE53_13 Bus1=53_13 Bus2=53_14 phases=3 Linecode=4c_.2_SAC Length=0.065 Units=m
New Line.LINE53_14 Bus1=53_14 Bus2=53_15 phases=3 Linecode=4c_.2_SAC Length=0.069355 Units=m
New Line.LINE53_15 Bus1=53_15 Bus2=53_16 phases=3 Linecode=4c_.2_SAC Length=0.37752 Units=m
New Line.LINE53_16 Bus1=53_16 Bus2=53_17 phases=3 Linecode=4c_.2_SAC Length=0.053151 Units=m
New Line.LINE53_17 Bus1=53_17 Bus2=53_18 phases=3 Linecode=4c_.2_SAC Length=0.057706 Units=m
New Line.LINE53_18 Bus1=53_18 Bus2=53_19 phases=3 Linecode=4c_.2_SAC Length=0.03614 Units=m
New Line.LINE53_19 Bus1=53_19 Bus2=53_20 phases=3 Linecode=4c_.2_SAC Length=0.046389 Units=m
New Line.LINE53_20 Bus1=53_20 Bus2=53_21 phases=3 Linecode=4c_.2_SAC Length=0.046098 Units=m
New Line.LINE53_21 Bus1=53_21 Bus2=53_22 phases=3 Linecode=4c_.2_SAC Length=5.1968 Units=m
New Line.LINE53_22 Bus1=53_22 Bus2=53_23 phases=3 Linecode=5c_.04 Length=0.1808 Units=m
New Line.LINE53_23 Bus1=53_23 Bus2=53_24 phases=3 Linecode=5c_.04 Length=0.1695 Units=m
New Line.LINE53_24 Bus1=53_24 Bus2=53_25 phases=3 Linecode=5c_.04 Length=1.6284 Units=m
New Line.LINE53_25 Bus1=53_25 Bus2=53_26 phases=3 Linecode=5c_.04 Length=0.76569 Units=m
New Line.LINE53_26 Bus1=53_26 Bus2=53_27 phases=3 Linecode=5c_.04 Length=1.4137 Units=m
New Line.LINE53_27 Bus1=53_27 Bus2=53_28 phases=3 Linecode=5c_.04 Length=9.5944 Units=m
New Line.LINE53_28 Bus1=53_28 Bus2=53_29 phases=3 Linecode=5c_.04 Length=0.65888 Units=m
New Line.LINE53_29 Bus1=53_29 Bus2=53_30 phases=3 Linecode=5c_.04 Length=0.11183 Units=m
New Line.LINE53_30 Bus1=53_30 Bus2=53_31 phases=3 Linecode=5c_.04 Length=0.084204 Units=m
New Line.LINE53_31 Bus1=53_31 Bus2=53_32 phases=3 Linecode=5c_.04 Length=0.1217 Units=m
New Line.LINE53_32 Bus1=53_32 Bus2=53_33 phases=3 Linecode=5c_.04 Length=0.21051 Units=m
New Line.LINE53_33 Bus1=53_33 Bus2=53_34 phases=3 Linecode=5c_.04 Length=0.13147 Units=m
New Line.LINE53_34 Bus1=53_34 Bus2=53_35 phases=3 Linecode=5c_.04 Length=0.17877 Units=m
New Line.LINE53_35 Bus1=53_35 Bus2=53_36 phases=3 Linecode=5c_.04 Length=0.15174 Units=m
New Line.LINE53_36 Bus1=53_36 Bus2=53_37 phases=3 Linecode=5c_.04 Length=0.197 Units=m
New Line.LINE53_37 Bus1=53_37 Bus2=53_38 phases=3 Linecode=5c_.04 Length=0.24748 Units=m
New Line.LINE53_38 Bus1=53_38 Bus2=53_39 phases=3 Linecode=5c_.04 Length=0.6069 Units=m
New Line.LINE53_39 Bus1=53_39 Bus2=53_40 phases=3 Linecode=5c_.04 Length=1.5167 Units=m
New Line.LINE53_40 Bus1=53_40 Bus2=53_41 phases=3 Linecode=5c_.04 Length=2.8184 Units=m
New Line.LINE53_41 Bus1=53_41 Bus2=53_42 phases=3 Linecode=5c_.04 Length=7.9324 Units=m
New Line.LINE53_42 Bus1=53_42 Bus2=53_43 phases=3 Linecode=5c_.04 Length=2.3456 Units=m
New Line.LINE53_43 Bus1=53_43 Bus2=53_44 phases=3 Linecode=5c_.04 Length=4.2054 Units=m
New Line.LINE53_44 Bus1=53_44 Bus2=53_45 phases=3 Linecode=5c_.04 Length=0.27795 Units=m
New Line.LINE53_45 Bus1=53_45 Bus2=53_46 phases=3 Linecode=5c_.04 Length=0.19488 Units=m
New Line.LINE53_46 Bus1=53_46 Bus2=53_47 phases=3 Linecode=5c_.04 Length=0.16996 Units=m
New Line.LINE53_47 Bus1=53_47 Bus2=53_48 phases=3 Linecode=5c_.04 Length=0.185 Units=m
New Line.LINE53_48 Bus1=53_48 Bus2=53_49 phases=3 Linecode=5c_.04 Length=0.17111 Units=m
New Line.LINE53_49 Bus1=53_49 Bus2=53_50 phases=3 Linecode=5c_.04 Length=0.12219 Units=m
New Line.LINE53_50 Bus1=53_50 Bus2=53_51 phases=3 Linecode=5c_.04 Length=0.099724 Units=m
New Line.LINE53_51 Bus1=53_51 Bus2=53_52 phases=3 Linecode=5c_.04 Length=0.14094 Units=m
New Line.LINE53_52 Bus1=53_52 Bus2=53_53 phases=3 Linecode=5c_.04 Length=0.28851 Units=m
New Line.LINE53_53 Bus1=53_53 Bus2=53_54 phases=3 Linecode=5c_.04 Length=0.68602 Units=m
New Line.LINE53_54 Bus1=53_54 Bus2=53_55 phases=3 Linecode=5c_.04 Length=0.64285 Units=m
New Line.LINE53_55 Bus1=53_55 Bus2=53_56 phases=3 Linecode=5c_.04 Length=0.37389 Units=m
New Line.LINE53_56 Bus1=53_56 Bus2=53_57 phases=3 Linecode=5c_.04 Length=1.138 Units=m
New Line.LINE53_57 Bus1=53_57 Bus2=53_58 phases=3 Linecode=5c_.04 Length=1.6386 Units=m
New Line.LINE53_58 Bus1=53_58 Bus2=53_59 phases=3 Linecode=5c_.04 Length=0.67996 Units=m
New Line.LINE53_59 Bus1=53_59 Bus2=53_60 phases=3 Linecode=5c_.04 Length=1.4631 Units=m
New Line.LINE53_60 Bus1=53_60 Bus2=53_61 phases=3 Linecode=5c_.04 Length=9.8586 Units=m
New Line.LINE53_61 Bus1=53_61 Bus2=53_62 phases=3 Linecode=5c_.04 Length=6.2508 Units=m
New Line.LINE53_63 Bus1=53_62 Bus2=53_64 phases=3 Linecode=5c_.04 Length=0.22857 Units=m
New Line.LINE53_65 Bus1=53_64 Bus2=53_66 phases=3 Linecode=2c_.0145 Length=16.4023 Units=m
New Line.LINE53_66 Bus1=53_64 Bus2=53_67 phases=3 Linecode=5c_.04 Length=9.2431 Units=m
New Line.LINE53_68 Bus1=53_66 Bus2=53_69 phases=3 Linecode=2c_.0145 Length=4.5267 Units=m
New Line.LINE53_70 Bus1=53_67 Bus2=53_71 phases=3 Linecode=2c_.0145 Length=15.7165 Units=m
New Line.LINE53_71 Bus1=53_67 Bus2=53_72 phases=3 Linecode=5c_.04 Length=5.5802 Units=m
New Line.LINE53_74 Bus1=53_71 Bus2=53_75 phases=3 Linecode=2c_.0145 Length=3.8716 Units=m
New Line.LINE53_76 Bus1=53_72 Bus2=53_77 phases=3 Linecode=4c_.3_SAC Length=7.2389 Units=m
New Line.LINE53_80 Bus1=53_77 Bus2=53_81 phases=3 Linecode=4c_.3_SAC Length=7.1359 Units=m
New Line.LINE53_84 Bus1=53_81 Bus2=53_85 phases=3 Linecode=4c_.3_SAC Length=0.2631 Units=m
New Line.LINE53_88 Bus1=53_85 Bus2=53_89 phases=3 Linecode=4c_.3_SAC Length=0.1252 Units=m
New Line.LINE53_91 Bus1=53_89 Bus2=53_92 phases=3 Linecode=4c_.3_SAC Length=0.15654 Units=m
New Line.LINE53_92 Bus1=53_92 Bus2=53_93 phases=3 Linecode=4c_.3_SAC Length=0.16177 Units=m
New Line.LINE53_93 Bus1=53_93 Bus2=53_94 phases=3 Linecode=4c_.3_SAC Length=1.6833 Units=m
New Line.LINE53_111 Bus1=53_108 Bus2=53_112 phases=3 Linecode=2c_.0145 Length=6.5048 Units=m
New Line.LINE53_118 Bus1=53_112 Bus2=53_119 phases=3 Linecode=2c_.0145 Length=4.7841 Units=m
New Line.LINE53_195 Bus1=53_190 Bus2=53_196 phases=3 Linecode=4c_.2_SAC Length=10.9381 Units=m
New Line.LINE53_196 Bus1=53_190 Bus2=53_197 phases=3 Linecode=4c_.2_SAC Length=9.3902 Units=m
New Line.LINE53_201 Bus1=53_196 Bus2=53_202 phases=3 Linecode=5c_.1 Length=12.0138 Units=m
New Line.LINE53_203 Bus1=53_197 Bus2=53_204 phases=3 Linecode=2c_.0145 Length=6.6277 Units=m
New Line.LINE53_209 Bus1=53_202 Bus2=53_210 phases=3 Linecode=5c_.1 Length=10.1102 Units=m
New Line.LINE53_210 Bus1=53_204 Bus2=53_211 phases=3 Linecode=2c_.0145 Length=5.294 Units=m
New Line.LINE53_219 Bus1=53_210 Bus2=53_220 phases=3 Linecode=5c_.1 Length=4.205 Units=m
New Line.LINE53_225 Bus1=53_217 Bus2=53_226 phases=3 Linecode=2c_.0225 Length=6.2974 Units=m
New Line.LINE53_230 Bus1=53_220 Bus2=53_231 phases=3 Linecode=5c_.1 Length=6.1189 Units=m
New Line.LINE53_250 Bus1=53_240 Bus2=53_251 phases=3 Linecode=2c_.0225 Length=5.703 Units=m
New Line.LINE53_264 Bus1=53_253 Bus2=53_265 phases=3 Linecode=2c_.02 Length=6.8653 Units=m
New Line.LINE53_272 Bus1=53_261 Bus2=53_273 phases=3 Linecode=2c_.0225 Length=5.9991 Units=m
New Line.LINE53_313 Bus1=53_301 Bus2=53_314 phases=3 Linecode=4c_.3_SAC Length=2.3228 Units=m
New Line.LINE53_318 Bus1=53_304 Bus2=53_319 phases=3 Linecode=2c_.0145 Length=1.7735 Units=m
New Line.LINE53_325 Bus1=53_310 Bus2=53_326 phases=3 Linecode=2c_.0225 Length=5.8102 Units=m
New Line.LINE53_331 Bus1=53_314 Bus2=53_332 phases=3 Linecode=4c_.3_SAC Length=1.0664 Units=m
New Line.LINE53_360 Bus1=53_344 Bus2=53_361 phases=3 Linecode=2c_.0225 Length=5.1196 Units=m
New Line.LINE53_441 Bus1=53_426 Bus2=53_442 phases=3 Linecode=5c_.1 Length=5.8671 Units=m
New Line.LINE53_445 Bus1=53_429 Bus2=53_446 phases=3 Linecode=4c_.3_SAC Length=4.3271 Units=m
New Line.LINE53_497 Bus1=53_479 Bus2=53_498 phases=3 Linecode=4c_.3_SAC Length=8.6209 Units=m
New Line.LINE53_510 Bus1=53_492 Bus2=53_511 phases=3 Linecode=2c_.0225 Length=5.855 Units=m
New Line.LINE53_513 Bus1=53_493 Bus2=53_514 phases=3 Linecode=5c_.1 Length=5.2341 Units=m
New Line.LINE53_523 Bus1=53_503 Bus2=53_524 phases=3 Linecode=4c_185_SAC_XC Length=1.5199 Units=m
New Line.LINE53_535 Bus1=53_514 Bus2=53_536 phases=3 Linecode=5c_.1 Length=4.0669 Units=m
New Line.LINE53_545 Bus1=53_524 Bus2=53_546 phases=3 Linecode=5c_.1 Length=0.95897 Units=m
New Line.LINE53_554 Bus1=53_534 Bus2=53_555 phases=3 Linecode=2c_.0225 Length=4.7256 Units=m
New Line.LINE53_558 Bus1=53_536 Bus2=53_559 phases=3 Linecode=5c_.1 Length=4.06 Units=m
New Line.LINE53_569 Bus1=53_546 Bus2=53_570 phases=3 Linecode=5c_.1 Length=0.60363 Units=m
New Line.LINE53_578 Bus1=53_557 Bus2=53_579 phases=3 Linecode=2c_.0145 Length=5.7822 Units=m
New Line.LINE53_581 Bus1=53_559 Bus2=53_582 phases=3 Linecode=.0225 Length=0.3677 Units=m
New Line.LINE53_589 Bus1=53_565 Bus2=53_590 phases=3 Linecode=4c_.3_SAC Length=0.4011 Units=m
New Line.LINE53_594 Bus1=53_570 Bus2=53_595 phases=3 Linecode=5c_.1 Length=0.56868 Units=m
New Line.LINE53_603 Bus1=53_582 Bus2=53_604 phases=3 Linecode=.0225 Length=0.20396 Units=m
New Line.LINE53_626 Bus1=53_604 Bus2=53_627 phases=3 Linecode=.0225 Length=0.2502 Units=m
New Line.LINE53_649 Bus1=53_627 Bus2=53_650 phases=3 Linecode=.0225 Length=0.1772 Units=m
New Line.LINE53_674 Bus1=53_650 Bus2=53_675 phases=3 Linecode=.0225 Length=0.13602 Units=m
New Line.LINE53_699 Bus1=53_675 Bus2=53_700 phases=3 Linecode=.0225 Length=0.072802 Units=m
New Line.LINE53_708 Bus1=53_684 Bus2=53_709 phases=3 Linecode=4c_.3_SAC Length=4.2341 Units=m
New Line.LINE53_718 Bus1=53_693 Bus2=53_719 phases=3 Linecode=5c_.1 Length=1.3761 Units=m
New Line.LINE53_724 Bus1=53_700 Bus2=53_725 phases=3 Linecode=.0225 Length=0.15811 Units=m
New Line.LINE53_744 Bus1=53_719 Bus2=53_745 phases=3 Linecode=2c_.0225 Length=15.7755 Units=m
New Line.LINE53_745 Bus1=53_719 Bus2=53_746 phases=3 Linecode=5c_.1 Length=8.6688 Units=m
New Line.LINE53_750 Bus1=53_725 Bus2=53_751 phases=3 Linecode=.0225 Length=0.35468 Units=m
New Line.LINE53_768 Bus1=53_742 Bus2=53_769 phases=3 Linecode=4c_.2_SAC Length=3.7277 Units=m
New Line.LINE53_772 Bus1=53_745 Bus2=53_773 phases=3 Linecode=2c_.0225 Length=4.1111 Units=m
New Line.LINE53_774 Bus1=53_746 Bus2=53_775 phases=3 Linecode=2c_.0225 Length=7.8064 Units=m
New Line.LINE53_777 Bus1=53_748 Bus2=53_778 phases=3 Linecode=2c_.0145 Length=4.7921 Units=m
New Line.LINE53_780 Bus1=53_751 Bus2=53_781 phases=3 Linecode=.0225 Length=0.39357 Units=m
New Line.LINE53_804 Bus1=53_775 Bus2=53_805 phases=3 Linecode=2c_.0225 Length=5.3643 Units=m
New Line.LINE53_810 Bus1=53_781 Bus2=53_811 phases=3 Linecode=.0225 Length=0.20224 Units=m
New Line.LINE53_821 Bus1=53_792 Bus2=53_822 phases=3 Linecode=4c_.3_SAC Length=2.516 Units=m
New Line.LINE53_837 Bus1=53_808 Bus2=53_838 phases=3 Linecode=2c_.0225 Length=14.7892 Units=m
New Line.LINE53_840 Bus1=53_811 Bus2=53_841 phases=3 Linecode=.0225 Length=0.24739 Units=m
New Line.LINE53_841 Bus1=53_812 Bus2=53_842 phases=3 Linecode=25_SAC_PC Length=4.7999 Units=m
New Line.LINE53_870 Bus1=53_838 Bus2=53_871 phases=3 Linecode=2c_.0225 Length=5.173 Units=m
New Line.LINE53_874 Bus1=53_841 Bus2=53_875 phases=3 Linecode=.0225 Length=0.21471 Units=m
New Line.LINE53_906 Bus1=53_875 Bus2=53_907 phases=3 Linecode=.0225 Length=0.36401 Units=m
New Line.LINE53_921 Bus1=53_890 Bus2=53_922 phases=3 Linecode=.0225 Length=2.2415 Units=m
New Line.LINE53_939 Bus1=53_907 Bus2=53_940 phases=3 Linecode=.0225 Length=0.24759 Units=m
New Line.LINE53_942 Bus1=53_910 Bus2=53_943 phases=3 Linecode=.0225 Length=3.0653 Units=m
New Line.LINE53_973 Bus1=53_940 Bus2=53_974 phases=3 Linecode=.0225 Length=2.2277 Units=m
New Line.LINE53_979 Bus1=53_947 Bus2=53_980 phases=3 Linecode=.0225 Length=3.6077 Units=m
New Line.LINE53_1005 Bus1=53_974 Bus2=53_1006 phases=3 Linecode=.0225 Length=2.9929 Units=m
New Line.LINE53_1034 Bus1=53_1006 Bus2=53_1035 phases=3 Linecode=.0225 Length=2.8053 Units=m
New Line.LINE53_1046 Bus1=53_1019 Bus2=53_1047 phases=3 Linecode=2c_.0225 Length=2.423 Units=m
New Line.LINE53_1060 Bus1=53_1033 Bus2=53_1061 phases=3 Linecode=2c_.0225 Length=7.3214 Units=m
New Line.LINE53_1063 Bus1=53_1035 Bus2=53_1064 phases=3 Linecode=.0225 Length=4.1574 Units=m
New Line.LINE53_1088 Bus1=53_1061 Bus2=53_1089 phases=3 Linecode=2c_.0225 Length=4.9293 Units=m
New Line.LINE53_1114 Bus1=53_1085 Bus2=53_1115 phases=3 Linecode=.0225 Length=1.5228 Units=m
New Line.LINE53_1137 Bus1=53_1112 Bus2=53_1138 phases=3 Linecode=4c_.2_SAC Length=1.291 Units=m
New Line.LINE53_1157 Bus1=53_1133 Bus2=53_1158 phases=3 Linecode=.0225 Length=3.0904 Units=m
New Line.LINE53_1171 Bus1=53_1147 Bus2=53_1172 phases=3 Linecode=2c_.04 Length=6.9051 Units=m
New Line.LINE53_1192 Bus1=53_1171 Bus2=53_1193 phases=3 Linecode=2c_.0225 Length=16.3414 Units=m
New Line.LINE53_1205 Bus1=53_1185 Bus2=53_1206 phases=3 Linecode=.0225 Length=2.2753 Units=m
New Line.LINE53_1215 Bus1=53_1193 Bus2=53_1216 phases=3 Linecode=2c_.0225 Length=5.5344 Units=m
New Line.LINE53_1233 Bus1=53_1213 Bus2=53_1234 phases=3 Linecode=2c_.04 Length=7.3193 Units=m
New Line.LINE53_1247 Bus1=53_1227 Bus2=53_1248 phases=3 Linecode=2c_.04 Length=8.1082 Units=m
New Line.LINE53_1281 Bus1=53_1262 Bus2=53_1282 phases=3 Linecode=2c_.04 Length=8.0631 Units=m
New Line.LINE53_1284 Bus1=53_1263 Bus2=53_1285 phases=3 Linecode=4c_.3_SAC Length=0.536 Units=m
New Line.LINE53_1301 Bus1=53_1281 Bus2=53_1302 phases=3 Linecode=.0225 Length=2.7558 Units=m
New Line.LINE53_1306 Bus1=53_1285 Bus2=53_1307 phases=3 Linecode=4c_.3_SAC Length=1.3 Units=m
New Line.LINE53_1309 Bus1=53_1288 Bus2=53_1310 phases=3 Linecode=.04 Length=3.1201 Units=m
New Line.LINE53_1322 Bus1=53_1300 Bus2=53_1323 phases=3 Linecode=2c_.0225 Length=7.0982 Units=m
New Line.LINE53_1329 Bus1=53_1307 Bus2=53_1330 phases=3 Linecode=2c_.0225 Length=0.591 Units=m
New Line.LINE53_1345 Bus1=53_1323 Bus2=53_1346 phases=3 Linecode=2c_.0225 Length=5.0821 Units=m
New Line.LINE53_1353 Bus1=53_1330 Bus2=53_1354 phases=3 Linecode=2c_.0225 Length=2.0751 Units=m
New Line.LINE53_1370 Bus1=53_1348 Bus2=53_1371 phases=3 Linecode=2c_.0225 Length=13.9667 Units=m
New Line.LINE53_1376 Bus1=53_1354 Bus2=53_1377 phases=3 Linecode=2c_.0225 Length=0.80767 Units=m
New Line.LINE53_1391 Bus1=53_1371 Bus2=53_1392 phases=3 Linecode=2c_.0225 Length=5.9858 Units=m
New Line.LINE53_1398 Bus1=53_1377 Bus2=53_1399 phases=3 Linecode=2c_.0225 Length=0.907 Units=m
New Line.LINE53_1408 Bus1=53_1386 Bus2=53_1409 phases=3 Linecode=.0225 Length=3.0362 Units=m
New Line.LINE53_1416 Bus1=53_1395 Bus2=53_1417 phases=3 Linecode=5c_.1 Length=3.2413 Units=m
New Line.LINE53_1417 Bus1=53_1395 Bus2=53_1418 phases=3 Linecode=2c_.0225 Length=8.34 Units=m
New Line.LINE53_1421 Bus1=53_1399 Bus2=53_1422 phases=3 Linecode=2c_.0225 Length=1.7957 Units=m
New Line.LINE53_1438 Bus1=53_1417 Bus2=53_1439 phases=3 Linecode=5c_.1 Length=11.0401 Units=m
New Line.LINE53_1439 Bus1=53_1417 Bus2=53_1440 phases=3 Linecode=2c_.0225 Length=15.5425 Units=m
New Line.LINE53_1440 Bus1=53_1418 Bus2=53_1441 phases=3 Linecode=2c_.0225 Length=4.104 Units=m
New Line.LINE53_1444 Bus1=53_1422 Bus2=53_1445 phases=3 Linecode=2c_.0225 Length=1.3507 Units=m
New Line.LINE53_1461 Bus1=53_1439 Bus2=53_1462 phases=3 Linecode=5c_.1 Length=3.6452 Units=m
New Line.LINE53_1462 Bus1=53_1439 Bus2=53_1463 phases=3 Linecode=2c_.0225 Length=8.4494 Units=m
New Line.LINE53_1463 Bus1=53_1440 Bus2=53_1464 phases=3 Linecode=2c_.0225 Length=5.7691 Units=m
New Line.LINE53_1468 Bus1=53_1445 Bus2=53_1469 phases=3 Linecode=2c_.0225 Length=0.68635 Units=m
New Line.LINE53_1486 Bus1=53_1462 Bus2=53_1487 phases=3 Linecode=2c_.0225 Length=14.6538 Units=m
New Line.LINE53_1487 Bus1=53_1463 Bus2=53_1488 phases=3 Linecode=2c_.0225 Length=3.5639 Units=m
New Line.LINE53_1493 Bus1=53_1469 Bus2=53_1494 phases=3 Linecode=2c_.0225 Length=0.84779 Units=m
New Line.LINE53_1512 Bus1=53_1487 Bus2=53_1513 phases=3 Linecode=2c_.0225 Length=5.2235 Units=m
New Line.LINE53_1517 Bus1=53_1492 Bus2=53_1518 phases=3 Linecode=2c_.04 Length=7.0362 Units=m
New Line.LINE53_1520 Bus1=53_1494 Bus2=53_1521 phases=3 Linecode=2c_.0225 Length=0.88154 Units=m
New Line.LINE53_1548 Bus1=53_1521 Bus2=53_1549 phases=3 Linecode=2c_.0225 Length=1.2905 Units=m
New Line.LINE53_1562 Bus1=53_1534 Bus2=53_1563 phases=3 Linecode=.0225 Length=3.4583 Units=m
New Line.LINE53_1578 Bus1=53_1549 Bus2=53_1579 phases=3 Linecode=2c_.0225 Length=0.96975 Units=m
New Line.LINE53_1587 Bus1=53_1559 Bus2=53_1588 phases=3 Linecode=.0225 Length=6.2157 Units=m
New Line.LINE53_1592 Bus1=53_1562 Bus2=53_1593 phases=3 Linecode=4c_.2_SAC Length=8.7328 Units=m
New Line.LINE53_1601 Bus1=53_1573 Bus2=53_1602 phases=3 Linecode=2c_.0225 Length=9.959 Units=m
New Line.LINE53_1608 Bus1=53_1579 Bus2=53_1609 phases=3 Linecode=2c_.0225 Length=1.2218 Units=m
New Line.LINE53_1623 Bus1=53_1593 Bus2=53_1624 phases=3 Linecode=4c_.2_SAC Length=1.8971 Units=m
New Line.LINE53_1630 Bus1=53_1602 Bus2=53_1631 phases=3 Linecode=2c_.0225 Length=4.7055 Units=m
New Line.LINE53_1639 Bus1=53_1609 Bus2=53_1640 phases=3 Linecode=2c_.0225 Length=4.6174 Units=m
New Line.LINE53_1652 Bus1=53_1624 Bus2=53_1653 phases=3 Linecode=.0225 Length=0.47362 Units=m
New Line.LINE53_1667 Bus1=53_1640 Bus2=53_1668 phases=3 Linecode=2c_.0225 Length=1.1518 Units=m
New Line.LINE53_1681 Bus1=53_1653 Bus2=53_1682 phases=3 Linecode=.0225 Length=0.41484 Units=m
New Line.LINE53_1693 Bus1=53_1668 Bus2=53_1694 phases=3 Linecode=2c_.0225 Length=0.37489 Units=m
New Line.LINE53_1707 Bus1=53_1682 Bus2=53_1708 phases=3 Linecode=.0225 Length=0.38922 Units=m
New Line.LINE53_1710 Bus1=53_1686 Bus2=53_1711 phases=3 Linecode=2c_.0145 Length=3.2796 Units=m
New Line.LINE53_1719 Bus1=53_1694 Bus2=53_1720 phases=3 Linecode=2c_.0225 Length=0.77362 Units=m
New Line.LINE53_1731 Bus1=53_1708 Bus2=53_1732 phases=3 Linecode=.0225 Length=0.20763 Units=m
New Line.LINE53_1732 Bus1=53_1709 Bus2=53_1733 phases=3 Linecode=.0225 Length=3.619 Units=m
New Line.LINE53_1743 Bus1=53_1720 Bus2=53_1744 phases=3 Linecode=2c_.0225 Length=6.3572 Units=m
New Line.LINE53_1753 Bus1=53_1731 Bus2=53_1754 phases=3 Linecode=3c_185_SAC_XC Length=1.733 Units=m
New Line.LINE53_1755 Bus1=53_1732 Bus2=53_1756 phases=3 Linecode=.0225 Length=0.13764 Units=m
New Line.LINE53_1776 Bus1=53_1756 Bus2=53_1777 phases=3 Linecode=.0225 Length=0.07112 Units=m
New Line.LINE53_1794 Bus1=53_1777 Bus2=53_1795 phases=3 Linecode=.0225 Length=0.18868 Units=m
New Line.LINE53_1799 Bus1=53_1782 Bus2=53_1800 phases=3 Linecode=2c_.04 Length=7.0412 Units=m
New Line.LINE53_1815 Bus1=53_1795 Bus2=53_1816 phases=3 Linecode=.0225 Length=0.10142 Units=m
New Line.LINE53_1828 Bus1=53_1808 Bus2=53_1829 phases=3 Linecode=3c_185_SAC_XC Length=11.0152 Units=m
New Line.LINE53_1836 Bus1=53_1816 Bus2=53_1837 phases=3 Linecode=.0225 Length=0.060746 Units=m
New Line.LINE53_1852 Bus1=53_1832 Bus2=53_1853 phases=3 Linecode=3c_185_SAC_XC Length=1.4471 Units=m
New Line.LINE53_1858 Bus1=53_1837 Bus2=53_1859 phases=3 Linecode=.0225 Length=0.35501 Units=m
New Line.LINE53_1882 Bus1=53_1859 Bus2=53_1883 phases=3 Linecode=.0225 Length=8.5637 Units=m
New Line.LINE53_1906 Bus1=53_1883 Bus2=53_1907 phases=3 Linecode=.0225 Length=1.1503 Units=m
New Line.LINE53_1929 Bus1=53_1907 Bus2=53_1930 phases=3 Linecode=.0225 Length=0.16966 Units=m
New Line.LINE53_1953 Bus1=53_1930 Bus2=53_1954 phases=3 Linecode=.0225 Length=0.14712 Units=m
New Line.LINE53_1968 Bus1=53_1945 Bus2=53_1969 phases=3 Linecode=3c_185_SAC_XC Length=0.66598 Units=m
New Line.LINE53_1978 Bus1=53_1954 Bus2=53_1979 phases=3 Linecode=.0225 Length=0.18701 Units=m
New Line.LINE53_1981 Bus1=53_1957 Bus2=53_1982 phases=3 Linecode=2c_.0225 Length=11.645 Units=m
New Line.LINE53_1992 Bus1=53_1967 Bus2=53_1993 phases=3 Linecode=.04 Length=2.1571 Units=m
New Line.LINE53_2006 Bus1=53_1979 Bus2=53_2007 phases=3 Linecode=.0225 Length=0.1333 Units=m
New Line.LINE53_2009 Bus1=53_1982 Bus2=53_2010 phases=3 Linecode=2c_.0225 Length=2.4632 Units=m
New Line.LINE53_2032 Bus1=53_2007 Bus2=53_2033 phases=3 Linecode=.0225 Length=0.14509 Units=m
New Line.LINE53_2057 Bus1=53_2033 Bus2=53_2058 phases=3 Linecode=.0225 Length=0.20814 Units=m
New Line.LINE53_2081 Bus1=53_2058 Bus2=53_2082 phases=3 Linecode=.0225 Length=0.1911 Units=m
New Line.LINE53_2104 Bus1=53_2082 Bus2=53_2105 phases=3 Linecode=.0225 Length=0.15487 Units=m
New Line.LINE53_2127 Bus1=53_2105 Bus2=53_2128 phases=3 Linecode=.0225 Length=0.19602 Units=m
New Line.LINE53_2151 Bus1=53_2128 Bus2=53_2152 phases=3 Linecode=.0225 Length=0.72184 Units=m
New Line.LINE53_2175 Bus1=53_2152 Bus2=53_2176 phases=3 Linecode=.0225 Length=2.0011 Units=m
New Line.LINE53_2203 Bus1=53_2181 Bus2=53_2204 phases=3 Linecode=5c_.1 Length=3.5333 Units=m
New Line.LINE53_2204 Bus1=53_2181 Bus2=53_2205 phases=3 Linecode=2c_.0225 Length=10.49 Units=m
New Line.LINE53_2225 Bus1=53_2204 Bus2=53_2226 phases=3 Linecode=5c_.1 Length=3.0853 Units=m
New Line.LINE53_2226 Bus1=53_2205 Bus2=53_2227 phases=3 Linecode=2c_.0225 Length=3.2598 Units=m
New Line.LINE53_2248 Bus1=53_2226 Bus2=53_2249 phases=3 Linecode=25_SAC_XC Length=0.41289 Units=m
New Line.LINE53_2702 Bus1=53_2696 Bus2=53_2703 phases=3 Linecode=3c_185_SAC_XC Length=2.0026 Units=m
New Line.LINE53_2711 Bus1=53_2703 Bus2=53_2712 phases=3 Linecode=35_SAC_PC Length=0.255 Units=m
New Line.LINE53_2720 Bus1=53_2712 Bus2=53_2721 phases=3 Linecode=35_SAC_PC Length=0.23847 Units=m
New Line.LINE53_Cmpd_0 Bus1=53_1967 Bus2=53_2237 phases=3 Linecode=.04 Length=12.306912 Units=m
New Line.LINE53_Cmpd_1 Bus1=53_1686 Bus2=53_1885 phases=3 Linecode=2c_.0145 Length=10.22189 Units=m
New Line.LINE53_Cmpd_2 Bus1=53_492 Bus2=53_722 phases=3 Linecode=2c_.0225 Length=14.056034 Units=m
New Line.LINE53_Cmpd_3 Bus1=53_1427 Bus2=53_2313 phases=3 Linecode=35_SAC_PC Length=23.17999 Units=m
New Line.LINE53_Cmpd_4 Bus1=53_1945 Bus2=53_2647 phases=3 Linecode=35_SAC_PC Length=18.271135 Units=m
New Line.LINE53_Cmpd_5 Bus1=53_2666 Bus2=53_2826 phases=3 Linecode=35_SAC_PC Length=15.66475 Units=m
New Line.LINE53_Cmpd_6 Bus1=53_748 Bus2=53_1092 phases=3 Linecode=2c_.0145 Length=13.765134 Units=m
New Line.LINE53_Cmpd_7 Bus1=53_253 Bus2=53_438 phases=3 Linecode=2c_.02 Length=11.93248 Units=m
New Line.LINE53_Cmpd_8 Bus1=53_2687 Bus2=53_2902 phases=3 Linecode=35_SAC_PC Length=17.704243 Units=m
New Line.LINE53_Cmpd_9 Bus1=53_590 Bus2=53_1281 phases=3 Linecode=.0225 Length=13.707108 Units=m
New Line.LINE53_Cmpd_10 Bus1=53_1323 Bus2=53_1627 phases=3 Linecode=2c_.0225 Length=10.00273 Units=m
New Line.LINE53_Cmpd_11 Bus1=53_545 Bus2=53_1157 phases=3 Linecode=.0225 Length=13.733331 Units=m
New Line.LINE53_Cmpd_12 Bus1=53_684 Bus2=53_1019 phases=3 Linecode=2c_.0225 Length=12.76873 Units=m
New Line.LINE53_Cmpd_13 Bus1=53_479 Bus2=53_1147 phases=3 Linecode=2c_.04 Length=18.3049 Units=m
New Line.LINE53_Cmpd_14 Bus1=53_451 Bus2=53_809 phases=3 Linecode=2c_.0225 Length=13.810235 Units=m
New Line.LINE53_Cmpd_15 Bus1=53_1829 Bus2=53_2435 phases=3 Linecode=35_SAC_PC Length=16.874523 Units=m
New Line.LINE53_Cmpd_16 Bus1=53_2631 Bus2=53_2752 phases=3 Linecode=35_SAC_PC Length=8.463458 Units=m
New Line.LINE53_Cmpd_17 Bus1=53_399 Bus2=53_890 phases=3 Linecode=.0225 Length=13.438348 Units=m
New Line.LINE53_Cmpd_18 Bus1=53_664 Bus2=53_1227 phases=3 Linecode=2c_.04 Length=16.89586 Units=m
New Line.LINE53_Cmpd_19 Bus1=53_1263 Bus2=53_1743 phases=3 Linecode=2c_.04 Length=27.57181 Units=m
New Line.LINE53_Cmpd_20 Bus1=53_1193 Bus2=53_1390 phases=3 Linecode=2c_.0225 Length=9.96326 Units=m
New Line.LINE53_Cmpd_21 Bus1=53_2566 Bus2=53_2643 phases=3 Linecode=35_SAC_PC Length=10.386744 Units=m
New Line.LINE53_Cmpd_22 Bus1=53_1534 Bus2=53_1594 phases=3 Linecode=.0225 Length=6.988 Units=m
New Line.LINE53_Cmpd_23 Bus1=53_1969 Bus2=53_2521 phases=3 Linecode=35_SAC_PC Length=30.983013 Units=m
New Line.LINE53_Cmpd_24 Bus1=53_1928 Bus2=53_2489 phases=3 Linecode=35_SAC_PC Length=23.480199 Units=m
New Line.LINE53_Cmpd_25 Bus1=53_1853 Bus2=53_1945 phases=3 Linecode=3c_185_SAC_XC Length=4.90628 Units=m
New Line.LINE53_Cmpd_26 Bus1=53_1573 Bus2=53_1957 phases=3 Linecode=5c_.1 Length=33.0905 Units=m
New Line.LINE53_Cmpd_27 Bus1=53_545 Bus2=53_616 phases=3 Linecode=4c_.2_SAC Length=12.1708 Units=m
New Line.LINE53_Cmpd_28 Bus1=53_429 Bus2=53_1381 phases=3 Linecode=3c_185_SAC_XC Length=56.50714 Units=m
New Line.LINE53_Cmpd_29 Bus1=53_1928 Bus2=53_2587 phases=3 Linecode=35_SAC_PC Length=25.459393 Units=m
New Line.LINE53_Cmpd_30 Bus1=53_1586 Bus2=53_1647 phases=3 Linecode=3c_185_SAC_XC Length=0.520876 Units=m
New Line.LINE53_Cmpd_31 Bus1=53_2696 Bus2=53_2816 phases=3 Linecode=35_SAC_PC Length=11.422715 Units=m
New Line.LINE53_Cmpd_32 Bus1=53_616 Bus2=53_1133 phases=3 Linecode=.0225 Length=12.809783 Units=m
New Line.LINE53_Cmpd_33 Bus1=53_565 Bus2=53_1492 phases=3 Linecode=2c_.04 Length=18.215196 Units=m
New Line.LINE53_Cmpd_34 Bus1=53_1427 Bus2=53_2230 phases=3 Linecode=35_SAC_PC Length=24.808473 Units=m
New Line.LINE53_Cmpd_35 Bus1=53_1316 Bus2=53_1967 phases=3 Linecode=.04 Length=19.054067 Units=m
New Line.LINE53_Cmpd_36 Bus1=53_616 Bus2=53_664 phases=3 Linecode=4c_.2_SAC Length=4.14887 Units=m
New Line.LINE53_Cmpd_37 Bus1=53_1386 Bus2=53_1505 phases=3 Linecode=.0225 Length=6.265742 Units=m
New Line.LINE53_Cmpd_38 Bus1=53_418 Bus2=53_622 phases=3 Linecode=2c_.0225 Length=16.04894 Units=m
New Line.LINE53_Cmpd_39 Bus1=53_311 Bus2=53_426 phases=3 Linecode=5c_.1 Length=14.23359 Units=m
New Line.LINE53_Cmpd_40 Bus1=53_917 Bus2=53_1782 phases=3 Linecode=2c_.04 Length=21.760946 Units=m
New Line.LINE53_Cmpd_41 Bus1=53_1829 Bus2=53_2189 phases=3 Linecode=3c_185_SAC_XC Length=20.13974 Units=m
New Line.LINE53_Cmpd_42 Bus1=53_2353 Bus2=53_2566 phases=3 Linecode=3c_185_SAC_XC Length=14.73033 Units=m
New Line.LINE53_Cmpd_43 Bus1=53_1381 Bus2=53_2064 phases=3 Linecode=35_SAC_PC Length=14.289175 Units=m
New Line.LINE53_Cmpd_44 Bus1=53_2205 Bus2=53_2402 phases=3 Linecode=2c_.0225 Length=10.63366 Units=m
New Line.LINE53_Cmpd_45 Bus1=53_1386 Bus2=53_1709 phases=3 Linecode=.0225 Length=21.085311 Units=m
New Line.LINE53_Cmpd_46 Bus1=53_112 Bus2=53_194 phases=3 Linecode=2c_.0145 Length=7.445254 Units=m
New Line.LINE53_Cmpd_47 Bus1=53_1853 Bus2=53_2621 phases=3 Linecode=35_SAC_PC Length=16.833694 Units=m
New Line.LINE53_Cmpd_48 Bus1=53_693 Bus2=53_967 phases=3 Linecode=16_PSC Length=14.32208 Units=m
New Line.LINE53_Cmpd_49 Bus1=53_1463 Bus2=53_1763 phases=3 Linecode=2c_.0225 Length=11.92208 Units=m
New Line.LINE53_Cmpd_50 Bus1=53_2353 Bus2=53_2548 phases=3 Linecode=35_SAC_PC Length=9.46572 Units=m
New Line.LINE53_Cmpd_51 Bus1=53_1791 Bus2=53_2501 phases=3 Linecode=35_SAC_PC Length=25.302843 Units=m
New Line.LINE53_Cmpd_52 Bus1=53_451 Bus2=53_694 phases=3 Linecode=2c_.0145 Length=18.83122 Units=m
New Line.LINE53_Cmpd_53 Bus1=53_1512 Bus2=53_1573 phases=3 Linecode=5c_.1 Length=4.76738 Units=m
New Line.LINE53_Cmpd_54 Bus1=53_1562 Bus2=53_2023 phases=3 Linecode=.0225 Length=14.646965 Units=m
New Line.LINE53_Cmpd_55 Bus1=53_1262 Bus2=53_1420 phases=3 Linecode=2c_.04 Length=13.36221 Units=m
New Line.LINE53_Cmpd_56 Bus1=53_838 Bus2=53_1118 phases=3 Linecode=2c_.0225 Length=9.19919 Units=m
New Line.LINE53_Cmpd_57 Bus1=53_709 Bus2=53_1262 phases=3 Linecode=2c_.04 Length=18.21355 Units=m
New Line.LINE53_Cmpd_58 Bus1=53_2631 Bus2=53_2687 phases=3 Linecode=3c_185_SAC_XC Length=22.3901 Units=m
New Line.LINE53_Cmpd_59 Bus1=53_595 Bus2=53_1389 phases=3 Linecode=25_SAC_XC Length=23.324236 Units=m
New Line.LINE53_Cmpd_60 Bus1=53_2717 Bus2=53_2900 phases=3 Linecode=35_SAC_PC Length=20.379342 Units=m
New Line.LINE53_Cmpd_61 Bus1=53_426 Bus2=53_812 phases=3 Linecode=25_SAC_PC Length=8.197195 Units=m
New Line.LINE53_Cmpd_62 Bus1=53_1969 Bus2=53_2631 phases=3 Linecode=3c_185_SAC_XC Length=18.632655 Units=m
New Line.LINE53_Cmpd_63 Bus1=53_830 Bus2=53_1185 phases=3 Linecode=.0225 Length=14.21659 Units=m
New Line.LINE53_Cmpd_64 Bus1=53_1138 Bus2=53_1386 phases=3 Linecode=.0225 Length=12.36851 Units=m
New Line.LINE53_Cmpd_65 Bus1=53_204 Bus2=53_395 phases=3 Linecode=2c_.0145 Length=14.52702 Units=m
New Line.LINE53_Cmpd_66 Bus1=53_498 Bus2=53_947 phases=3 Linecode=.0225 Length=12.9752 Units=m
New Line.LINE53_Cmpd_67 Bus1=53_1832 Bus2=53_2555 phases=3 Linecode=35_SAC_PC Length=12.481621 Units=m
New Line.LINE53_Cmpd_68 Bus1=53_1586 Bus2=53_2232 phases=3 Linecode=35_SAC_PC Length=21.381329 Units=m
New Line.LINE53_Cmpd_69 Bus1=53_1754 Bus2=53_1928 phases=3 Linecode=35_SAC_PC Length=1.129622 Units=m
New Line.LINE53_Cmpd_70 Bus1=53_2189 Bus2=53_2353 phases=3 Linecode=3c_185_SAC_XC Length=10.82085 Units=m
New Line.LINE53_Cmpd_71 Bus1=53_310 Bus2=53_455 phases=3 Linecode=2c_.0225 Length=15.18652 Units=m
New Line.LINE53_Cmpd_72 Bus1=53_792 Bus2=53_1155 phases=3 Linecode=.0225 Length=15.49491 Units=m
New Line.LINE53_Cmpd_73 Bus1=53_314 Bus2=53_545 phases=3 Linecode=4c_.2_SAC Length=5.77909 Units=m
New Line.LINE53_Cmpd_74 Bus1=53_100 Bus2=53_281 phases=3 Linecode=4c_185_SAC_XC Length=23.80326 Units=m
New Line.LINE53_Cmpd_75 Bus1=53_240 Bus2=53_390 phases=3 Linecode=2c_.0225 Length=14.364778 Units=m
New Line.LINE53_Cmpd_76 Bus1=53_1453 Bus2=53_1559 phases=3 Linecode=.0225 Length=12.547197 Units=m