New Line.LINE65 Bus1=64 Bus2=66 phases=3 Linecode=2c_.0145 Length=16.4023 Units=m
New Line.LINE66 Bus1=64 Bus2=67 phases=3 Linecode=5c_.04 Length=9.2431 Units=m
New Line.LINE68 Bus1=66 Bus2=69 phases=3 Linecode=2c_.0145 Length=4.5267 Units=m
New Line.LINE70 Bus1=67 Bus2=71 phases=3 Linecode=2c_.0145 Length=15.7165 Units=m
New Line.LINE71 Bus1=67 Bus2=72 phases=3 Linecode=5c_.04 Length=5.5802 Units=m
New Line.LINE74 Bus1=71 Bus2=75 phases=3 Linecode=2c_.0145 Length=3.8716 Units=m
New Line.LINE111 Bus1=108 Bus2=112 phases=3 Linecode=2c_.0145 Length=6.5048 Units=m
New Line.LINE118 Bus1=112 Bus2=119 phases=3 Linecode=2c_.0145 Length=4.7841 Units=m
New Line.LINE195 Bus1=190 Bus2=196 phases=3 Linecode=4c_.2_SAC Length=10.9381 Units=m
New Line.LINE196 Bus1=190 Bus2=197 phases=3 Linecode=4c_.2_SAC Length=9.3902 Units=m
New Line.LINE201 Bus1=196 Bus2=202 phases=3 Linecode=5c_.1 Length=12.0138 Units=m
New Line.LINE203 Bus1=197 Bus2=204 phases=3 Linecode=2c_.0145 Length=6.6277 Units=m
New Line.LINE209 Bus1=202 Bus2=210 phases=3 Linecode=5c_.1 Length=10.1102 Units=m
New Line.LINE210 Bus1=204 Bus2=211 phases=3 Linecode=2c_.0145 Length=5.294 Units=m
New Line.LINE219 Bus1=210 Bus2=220 phases=3 Linecode=5c_.1 Length=4.205 Units=m
New Line.LINE225 Bus1=217 Bus2=226 phases=3 Linecode=2c_.0225 Length=6.2974 Units=m
New Line.LINE230 Bus1=220 Bus2=231 phases=3 Linecode=5c_.1 Length=6.1189 Units=m
New Line.LINE250 Bus1=240 Bus2=251 phases=3 Linecode=2c_.0225 Length=5.703 Units=m
New Line.LINE264 Bus1=253 Bus2=265 phases=3 Linecode=2c_.02 Length=6.8653 Units=m
New Line.LINE272 Bus1=261 Bus2=273 phases=3 Linecode=2c_.0225 Length=5.9991 Units=m
New Line.LINE313 Bus1=301 Bus2=314 phases=3 Linecode=4c_.3_SAC Length=2.3228 Units=m
New Line.LINE318 Bus1=304 Bus2=319 phases=3 Linecode=2c_.0145 Length=1.7735 Units=m
New Line.LINE325 Bus1=310 Bus2=326 phases=3 Linecode=2c_.0225 Length=5.8102 Units=m
New Line.LINE331 Bus1=314 Bus2=332 phases=3 Linecode=4c_.3_SAC Length=1.0664 Units=m
New Line.LINE360 Bus1=344 Bus2=361 phases=3 Linecode=2c_.0225 Length=5.1196 Units=m
New Line.LINE441 Bus1=426 Bus2=442 phases=3 Linecode=5c_.1 Length=5.8671 Units=m
New Line.LINE445 Bus1=429 Bus2=446 phases=3 Linecode=4c_.3_SAC Length=4.3271 Units=m
New Line.LINE497 Bus1=479 Bus2=498 phases=3 Linecode=4c_.3_SAC Length=8.6209 Units=m
New Line.LINE510 Bus1=492 Bus2=511 phases=3 Linecode=2c_.0225 Length=5.855 Units=m
New Line.LINE513 Bus1=493 Bus2=514 phases=3 Linecode=5c_.1 Length=5.2341 Units=m
New Line.LINE523 Bus1=503 Bus2=524 phases=3 Linecode=4c_185_SAC_XC Length=1.5199 Units=m
New Line.LINE535 Bus1=514 Bus2=536 phases=3 Linecode=5c_.1 Length=4.0669 Units=m
New Line.LINE554 Bus1=534 Bus2=555 phases=3 Linecode=2c_.0225 Length=4.7256 Units=m
New Line.LINE558 Bus1=536 Bus2=559 phases=3 Linecode=5c_.1 Length=4.06 Units=m
New Line.LINE578 Bus1=557 Bus2=579 phases=3 Linecode=2c_.0145 Length=5.7822 Units=m
New Line.LINE589 Bus1=565 Bus2=590 phases=3 Linecode=4c_.3_SAC Length=0.4011 Units=m
New Line.LINE708 Bus1=684 Bus2=709 phases=3 Linecode=4c_.3_SAC Length=4.2341 Units=m
New Line.LINE718 Bus1=693 Bus2=719 phases=3 Linecode=5c_.1 Length=1.3761 Units=m
New Line.LINE744 Bus1=719 Bus2=745 phases=3 Linecode=2c_.0225 Length=15.7755 Units=m
New Line.LINE745 Bus1=719 Bus2=746 phases=3 Linecode=5c_.1 Length=8.6688 Units=m
New Line.LINE768 Bus1=742 Bus2=769 phases=3 Linecode=4c_.2_SAC Length=3.7277 Units=m
New Line.LINE772 Bus1=745 Bus2=773 phases=3 Linecode=2c_.0225 Length=4.1111 Units=m
New Line.LINE774 Bus1=746 Bus2=775 phases=3 Linecode=2c_.0225 Length=7.8064 Units=m
New Line.LINE777 Bus1=748 Bus2=778 phases=3 Linecode=2c_.0145 Length=4.7921 Units=m
New Line.LINE804 Bus1=775 Bus2=805 phases=3 Linecode=2c_.0225 Length=5.3643 Units=m
New Line.LINE821 Bus1=792 Bus2=822 phases=3 Linecode=4c_.3_SAC Length=2.516 Units=m
New Line.LINE837 Bus1=808 Bus2=838 phases=3 Linecode=2c_.0225 Length=14.7892 Units=m
New Line.LINE841 Bus1=812 Bus2=842 phases=3 Linecode=25_SAC_PC Length=4.7999 Units=m
New Line.LINE870 Bus1=838 Bus2=871 phases=3 Linecode=2c_.0225 Length=5.173 Units=m
New Line.LINE921 Bus1=890 Bus2=922 phases=3 Linecode=.0225 Length=2.2415 Units=m
New Line.LINE942 Bus1=910 Bus2=943 phases=3 Linecode=.0225 Length=3.0653 Units=m
New Line.LINE979 Bus1=947 Bus2=980 phases=3 Linecode=.0225 Length=3.6077 Units=m
New Line.LINE1046 Bus1=1019 Bus2=1047 phases=3 Linecode=2c_.0225 Length=2.423 Units=m
New Line.LINE1060 Bus1=1033 Bus2=1061 phases=3 Linecode=2c_.0225 Length=7.3214 Units=m
New Line.LINE1088 Bus1=1061 Bus2=1089 phases=3 Linecode=2c_.0225 Length=4.9293 Units=m
New Line.LINE1114 Bus1=1085 Bus2=1115 phases=3 Linecode=.0225 Length=1.5228 Units=m
New Line.LINE1137 Bus1=1112 Bus2=1138 phases=3 Linecode=4c_.2_SAC Length=1.291 Units=m
New Line.LINE1157 Bus1=1133 Bus2=1158 phases=3 Linecode=.0225 Length=3.0904 Units=m
New Line.LINE1171 Bus1=1147 Bus2=1172 phases=3 Linecode=2c_.04 Length=6.9051 Units=m
New Line.LINE1192 Bus1=1171 Bus2=1193 phases=3 Linecode=2c_.0225 Length=16.3414 Units=m
New Line.LINE1205 Bus1=1185 Bus2=1206 phases=3 Linecode=.0225 Length=2.2753 Units=m
New Line.LINE1215 Bus1=1193 Bus2=1216 phases=3 Linecode=2c_.0225 Length=5.5344 Units=m
New Line.LINE1233 Bus1=1213 Bus2=1234 phases=3 Linecode=2c_.04 Length=7.3193 Units=m
New Line.LINE1247 Bus1=1227 Bus2=1248 phases=3 Linecode=2c_.04 Length=8.1082 Units=m
New Line.LINE1281 Bus1=1262 Bus2=1282 phases=3 Linecode=2c_.04 Length=8.0631 Units=m
New Line.LINE1301 Bus1=1281 Bus2=1302 phases=3 Linecode=.0225 Length=2.7558 Units=m
New Line.LINE1309 Bus1=1288 Bus2=1310 phases=3 Linecode=.04 Length=3.1201 Units=m
New Line.LINE1322 Bus1=1300 Bus2=1323 phases=3 Linecode=2c_.0225 Length=7.0982 Units=m
New Line.LINE1345 Bus1=1323 Bus2=1346 phases=3 Linecode=2c_.0225 Length=5.0821 Units=m
New Line.LINE1370 Bus1=1348 Bus2=1371 phases=3 Linecode=2c_.0225 Length=13.9667 Units=m
New Line.LINE1391 Bus1=1371 Bus2=1392 phases=3 Linecode=2c_.0225 Length=5.9858 Units=m
New Line.LINE1408 Bus1=1386 Bus2=1409 phases=3 Linecode=.0225 Length=3.0362 Units=m
New Line.LINE1416 Bus1=1395 Bus2=1417 phases=3 Linecode=5c_.1 Length=3.2413 Units=m
New Line.LINE1417 Bus1=1395 Bus2=1418 phases=3 Linecode=2c_.0225 Length=8.34 Units=m
New Line.LINE1438 Bus1=1417 Bus2=1439 phases=3 Linecode=5c_.1 Length=11.0401 Units=m
New Line.LINE1439 Bus1=1417 Bus2=1440 phases=3 Linecode=2c_.0225 Length=15.5425 Units=m
New Line.LINE1440 Bus1=1418 Bus2=1441 phases=3 Linecode=2c_.0225 Length=4.104 Units=m
New Line.LINE1461 Bus1=1439 Bus2=1462 phases=3 Linecode=5c_.1 Length=3.6452 Units=m
New Line.LINE1462 Bus1=1439 Bus2=1463 phases=3 Linecode=2c_.0225 Length=8.4494 Units=m
New Line.LINE1463 Bus1=1440 Bus2=1464 phases=3 Linecode=2c_.0225 Length=5.7691 Units=m
New Line.LINE1486 Bus1=1462 Bus2=1487 phases=3 Linecode=2c_.0225 Length=14.6538 Units=m
New Line.LINE1487 Bus1=1463 Bus2=1488 phases=3 Linecode=2c_.0225 Length=3.5639 Units=m
New Line.LINE1512 Bus1=1487 Bus2=1513 phases=3 Linecode=2c_.0225 Length=5.2235 Units=m
New Line.LINE1517 Bus1=1492 Bus2=1518 phases=3 Linecode=2c_.04 Length=7.0362 Units=m
New Line.LINE1562 Bus1=1534 Bus2=1563 phases=3 Linecode=.0225 Length=3.4583 Units=m
New Line.LINE1587 Bus1=1559 Bus2=1588 phases=3 Linecode=.0225 Length=6.2157 Units=m
New Line.LINE1592 Bus1=1562 Bus2=1593 phases=3 Linecode=4c_.2_SAC Length=8.7328 Units=m
New Line.LINE1601 Bus1=1573 Bus2=1602 phases=3 Linecode=2c_.0225 Length=9.959 Units=m
New Line.LINE1623 Bus1=1593 Bus2=1624 phases=3 Linecode=4c_.2_SAC Length=1.8971 Units=m
New Line.LINE1630 Bus1=1602 Bus2=1631 phases=3 Linecode=2c_.0225 Length=4.7055 Units=m
New Line.LINE1710 Bus1=1686 Bus2=1711 phases=3 Linecode=2c_.0145 Length=3.2796 Units=m
New Line.LINE1732 Bus1=1709 Bus2=1733 phases=3 Linecode=.0225 Length=3.619 Units=m
New Line.LINE1753 Bus1=1731 Bus2=1754 phases=3 Linecode=3c_185_SAC_XC Length=1.733 Units=m
New Line.LINE1799 Bus1=1782 Bus2=1800 phases=3 Linecode=2c_.04 Length=7.0412 Units=m
New Line.LINE1828 Bus1=1808 Bus2=1829 phases=3 Linecode=3c_185_SAC_XC Length=11.0152 Units=m
New Line.LINE1852 Bus1=1832 Bus2=1853 phases=3 Linecode=3c_185_SAC_XC Length=1.4471 Units=m
New Line.LINE1968 Bus1=1945 Bus2=1969 phases=3 Linecode=3c_185_SAC_XC Length=0.66598 Units=m
New Line.LINE1981 Bus1=1957 Bus2=1982 phases=3 Linecode=2c_.0225 Length=11.645 Units=m
New Line.LINE1992 Bus1=1967 Bus2=1993 phases=3 Linecode=.04 Length=2.1571 Units=m
New Line.LINE2009 Bus1=1982 Bus2=2010 phases=3 Linecode=2c_.0225 Length=2.4632 Units=m
New Line.LINE2204 Bus1=2181 Bus2=2205 phases=3 Linecode=2c_.0225 Length=10.49 Units=m
New Line.LINE2226 Bus1=2205 Bus2=2227 phases=3 Linecode=2c_.0225 Length=3.2598 Units=m
New Line.LINE2248 Bus1=2226 Bus2=2249 phases=3 Linecode=25_SAC_XC Length=0.41289 Units=m
New Line.LINE2702 Bus1=2696 Bus2=2703 phases=3 Linecode=3c_185_SAC_XC Length=2.0026 Units=m
New Line.LINE2711 Bus1=2703 Bus2=2712 phases=3 Linecode=35_SAC_PC Length=0.255 Units=m
New Line.LINE2720 Bus1=2712 Bus2=2721 phases=3 Linecode=35_SAC_PC Length=0.23847 Units=m
New Line.LINECmpd_0 Bus1=446 Bus2=910 phases=3 Linecode=.0225 Length=13.690472 Units=m
New Line.LINECmpd_1 Bus1=1969 Bus2=2521 phases=3 Linecode=35_SAC_PC Length=30.983013 Units=m
New Line.LINECmpd_2 Bus1=590 Bus2=1281 phases=3 Linecode=.0225 Length=13.707108 Units=m
New Line.LINECmpd_3 Bus1=22 Bus2=64 phases=3 Linecode=5c_.04 Length=59.882128 Units=m
New Line.LINECmpd_4 Bus1=479 Bus2=1147 phases=3 Linecode=2c_.04 Length=18.3049 Units=m
New Line.LINECmpd_5 Bus1=2696 Bus2=2816 phases=3 Linecode=35_SAC_PC Length=11.422715 Units=m
New Line.LINECmpd_6 Bus1=565 Bus2=1492 phases=3 Linecode=2c_.04 Length=18.215196 Units=m
New Line.LINECmpd_7 Bus1=1967 Bus2=2237 phases=3 Linecode=.04 Length=12.306912 Units=m
New Line.LINECmpd_8 Bus1=709 Bus2=1262 phases=3 Linecode=2c_.04 Length=18.21355 Units=m
New Line.LINECmpd_9 Bus1=2353 Bus2=2548 phases=3 Linecode=35_SAC_PC Length=9.46572 Units=m
New Line.LINECmpd_10 Bus1=2566 Bus2=2666 phases=3 Linecode=3c_185_SAC_XC Length=15.64825 Units=m
New Line.LINECmpd_11 Bus1=261 Bus2=531 phases=3 Linecode=2c_.0225 Length=10.806657 Units=m
New Line.LINECmpd_12 Bus1=1928 Bus2=2587 phases=3 Linecode=35_SAC_PC Length=25.459393 Units=m
New Line.LINECmpd_13 Bus1=808 Bus2=1033 phases=3 Linecode=5c_.1 Length=9.85138 Units=m
New Line.LINECmpd_14 Bus1=769 Bus2=1213 phases=3 Linecode=2c_.04 Length=21.01598 Units=m
New Line.LINECmpd_15 Bus1=2110 Bus2=2181 phases=3 Linecode=5c_.1 Length=9.3952 Units=m
New Line.LINECmpd_16 Bus1=1945 Bus2=2647 phases=3 Linecode=35_SAC_PC Length=18.271135 Units=m
New Line.LINECmpd_17 Bus1=1112 Bus2=1684 phases=3 Linecode=2c_.04 Length=25.81117 Units=m
New Line.LINECmpd_18 Bus1=1853 Bus2=2621 phases=3 Linecode=35_SAC_PC Length=16.833694 Units=m
New Line.LINECmpd_19 Bus1=616 Bus2=1133 phases=3 Linecode=.0225 Length=12.809783 Units=m
New Line.LINECmpd_20 Bus1=332 Bus2=1146 phases=3 Linecode=2c_.04 Length=26.321344 Units=m
New Line.LINECmpd_21 Bus1=1316 Bus2=1967 phases=3 Linecode=.04 Length=19.054067 Units=m
New Line.LINECmpd_22 Bus1=2353 Bus2=2566 phases=3 Linecode=3c_185_SAC_XC Length=14.73033 Units=m
New Line.LINECmpd_23 Bus1=1487 Bus2=1762 phases=3 Linecode=2c_.0225 Length=10.08885 Units=m
New Line.LINECmpd_24 Bus1=812 Bus2=1093 phases=3 Linecode=25_SAC_PC Length=8.236825 Units=m
New Line.LINECmpd_25 Bus1=1832 Bus2=2555 phases=3 Linecode=35_SAC_PC Length=12.481621 Units=m
New Line.LINECmpd_26 Bus1=1791 Bus2=2501 phases=3 Linecode=35_SAC_PC Length=25.302843 Units=m
New Line.LINECmpd_27 Bus1=2110 Bus2=2349 phases=3 Linecode=35_PC Length=23.97515 Units=m
New Line.LINECmpd_28 Bus1=559 Bus2=1064 phases=3 Linecode=.0225 Length=15.573482 Units=m
New Line.LINECmpd_29 Bus1=1808 Bus2=2092 phases=3 Linecode=35_SAC_PC Length=9.210239 Units=m
New Line.LINECmpd_30 Bus1=418 Bus2=748 phases=3 Linecode=2c_.0145 Length=11.500669 Units=m
New Line.LINECmpd_31 Bus1=399 Bus2=890 phases=3 Linecode=.0225 Length=13.438348 Units=m
New Line.LINECmpd_32 Bus1=1853 Bus2=1945 phases=3 Linecode=3c_185_SAC_XC Length=4.90628 Units=m
New Line.LINECmpd_33 Bus1=1178 Bus2=1222 phases=3 Linecode=4c_.3_SAC Length=3.1342 Units=m
New Line.LINECmpd_34 Bus1=684 Bus2=1019 phases=3 Linecode=2c_.0225 Length=12.76873 Units=m
New Line.LINECmpd_35 Bus1=451 Bus2=809 phases=3 Linecode=2c_.0225 Length=13.810235 Units=m
New Line.LINECmpd_36 Bus1=1222 Bus2=1446 phases=3 Linecode=.04 Length=12.75775 Units=m
New Line.LINECmpd_37 Bus1=1453 Bus2=1562 phases=3 Linecode=4c_.2_SAC Length=13.0604 Units=m
New Line.LINECmpd_38 Bus1=2687 Bus2=2902 phases=3 Linecode=35_SAC_PC Length=17.704243 Units=m
New Line.LINECmpd_39 Bus1=2631 Bus2=2752 phases=3 Linecode=35_SAC_PC Length=8.463458 Units=m
New Line.LINECmpd_40 Bus1=429 Bus2=1381 phases=3 Linecode=3c_185_SAC_XC Length=56.50714 Units=m
New Line.LINECmpd_41 Bus1=792 Bus2=1155 phases=3 Linecode=.0225 Length=15.49491 Units=m
New Line.LINECmpd_42 Bus1=2189 Bus2=2466 phases=3 Linecode=35_SAC_PC Length=10.091518 Units=m
New Line.LINECmpd_43 Bus1=310 Bus2=455 phases=3 Linecode=2c_.0225 Length=15.18652 Units=m
New Line.LINECmpd_44 Bus1=917 Bus2=1782 phases=3 Linecode=2c_.04 Length=21.760946 Units=m
New Line.LINECmpd_45 Bus1=2721 Bus2=2876 phases=3 Linecode=35_SAC_PC Length=30.548584 Units=m
New Line.LINECmpd_46 Bus1=1463 Bus2=1763 phases=3 Linecode=2c_.0225 Length=11.92208 Units=m
New Line.LINECmpd_47 Bus1=2666 Bus2=2826 phases=3 Linecode=35_SAC_PC Length=15.66475 Units=m
New Line.LINECmpd_48 Bus1=1381 Bus2=2064 phases=3 Linecode=35_SAC_PC Length=14.289175 Units=m
New Line.LINECmpd_49 Bus1=1440 Bus2=1764 phases=3 Linecode=2c_.0225 Length=10.32532 Units=m
New Line.LINECmpd_50 Bus1=1138 Bus2=1386 phases=3 Linecode=.0225 Length=12.36851 Units=m
New Line.LINECmpd_51 Bus1=2717 Bus2=2900 phases=3 Linecode=35_SAC_PC Length=20.379342 Units=m
New Line.LINECmpd_52 Bus1=1829 Bus2=2189 phases=3 Linecode=3c_185_SAC_XC Length=20.13974 Units=m
New Line.LINECmpd_53 Bus1=1427 Bus2=2230 phases=3 Linecode=35_SAC_PC Length=24.808473 Units=m
New Line.LINECmpd_54 Bus1=775 Bus2=1001 phases=3 Linecode=2c_.0225 Length=8.5602 Units=m
New Line.LINECmpd_55 Bus1=693 Bus2=967 phases=3 Linecode=16_PSC Length=14.32208 Units=m
New Line.LINECmpd_56 Bus1=1316 Bus2=1453 phases=3 Linecode=4c_.2_SAC Length=4.532525 Units=m
New Line.LINECmpd_57 Bus1=1307 Bus2=1744 phases=3 Linecode=2c_.0225 Length=26.69981 Units=m
New Line.LINECmpd_58 Bus1=1731 Bus2=2199 phases=3 Linecode=35_SAC_PC Length=13.005602 Units=m
New Line.LINECmpd_59 Bus1=742 Bus2=1085 phases=3 Linecode=.0225 Length=13.33497 Units=m
New Line.LINECmpd_60 Bus1=1928 Bus2=2489 phases=3 Linecode=35_SAC_PC Length=23.480199 Units=m
New Line.LINECmpd_61 Bus1=231 Bus2=287 phases=3 Linecode=5c_.1 Length=11.7381 Units=m
New Line.LINECmpd_62 Bus1=1386 Bus2=1709 phases=3 Linecode=.0225 Length=21.085311 Units=m
New Line.LINECmpd_63 Bus1=451 Bus2=694 phases=3 Linecode=2c_.0145 Length=18.83122 Units=m
New Line.LINECmpd_64 Bus1=1185 Bus2=1250 phases=3 Linecode=.0225 Length=8.52435 Units=m
New Line.LINECmpd_65 Bus1=2712 Bus2=2888 phases=3 Linecode=35_SAC_PC Length=16.738937 Units=m
New Line.LINECmpd_66 Bus1=1982 Bus2=2203 phases=3 Linecode=2c_.0225 Length=9.42234 Units=m
New Line.LINECmpd_67 Bus1=204 Bus2=395 phases=3 Linecode=2c_.0145 Length=14.52702 Units=m
New Line.LINECmpd_68 Bus1=595 Bus2=1389 phases=3 Linecode=25_SAC_XC Length=23.324236 Units=m
New Line.LINECmpd_69 Bus1=2189 Bus2=2353 phases=3 Linecode=3c_185_SAC_XC Length=10.82085 Units=m
New Line.LINECmpd_70 Bus1=1647 Bus2=2043 phases=3 Linecode=35_SAC_PC Length=12.176797 Units=m
New Line.LINECmpd_71 Bus1=1061 Bus2=1215 phases=3 Linecode=2c_.0225 Length=10.20332 Units=m
New Line.LINECmpd_72 Bus1=314 Bus2=545 phases=3 Linecode=4c_.2_SAC Length=5.77909 Units=m
New Line.LINECmpd_73 Bus1=1647 Bus2=1808 phases=3 Linecode=3c_185_SAC_XC Length=10.7826 Units=m
New Line.LINECmpd_74 Bus1=1427 Bus2=2313 phases=3 Linecode=35_SAC_PC Length=23.17999 Units=m
New Line.LINECmpd_75 Bus1=121 Bus2=151 phases=3 Linecode=25_SAC_XC Length=28.727 Units=m
New Line.LINECmpd_76 Bus1=1072 Bus2=1288 phases=3 Linecode=.04 Length=12.7354 Units=m
New Line.LINECmpd_77 Bus1=94 Bus2=301 phases=3 Linecode=4c_.3_SAC Length=82.267233 Units=m
New Line.LINECmpd_78 Bus1=1586 Bus2=2232 phases=3 Linecode=35_SAC_PC Length=21.381329 Units=m
New Line.LINECmpd_79 Bus1=838 Bus2=1118 phases=3 Linecode=2c_.0225 Length=9.19919 Units=m
New Line.LINECmpd_80 Bus1=190 Bus2=418 phases=3 Linecode=4c_.0145 Length=13.486195 Units=m
New Line.LINECmpd_81 Bus1=1512 Bus2=1686 phases=3 Linecode=2c_.0145 Length=19.52983 Units=m
New Line.LINECmpd_82 Bus1=748 Bus2=1092 phases=3 Linecode=2c_.0145 Length=13.765134 Units=m
New Line.LINECmpd_83 Bus1=304 Bus2=434 phases=3 Linecode=2c_.0145 Length=8.32381 Units=m
New Line.LINECmpd_84 Bus1=1602 Bus2=1819 phases=3 Linecode=2c_.0225 Length=11.68588 Units=m
New Line.LINECmpd_85 Bus1=1969 Bus2=2631 phases=3 Linecode=3c_185_SAC_XC Length=18.632655 Units=m
New Line.LINECmpd_86 Bus1=557 Bus2=780 phases=3 Linecode=2c_.0145 Length=13.77343 Units=m
New Line.LINECmpd_87 Bus1=830 Bus2=1185 phases=3 Linecode=.0225 Length=14.21659 Units=m
New Line.LINECmpd_88 Bus1=822 Bus2=1181 phases=3 Linecode=.04 Length=16.60873 Units=m
New Line.LINECmpd_89 Bus1=536 Bus2=581 phases=3 Linecode=25_SAC_XC Length=12.8692 Units=m
New Line.LINECmpd_90 Bus1=890 Bus2=957 phases=3 Linecode=.0225 Length=6.9714 Units=m
New Line.LINECmpd_91 Bus1=311 Bus2=426 phases=3 Linecode=5c_.1 Length=14.23359 Units=m
New Line.LINECmpd_92 Bus1=344 Bus2=553 phases=3 Linecode=2c_.0225 Length=11.63381 Units=m
New Line.LINECmpd_93 Bus1=217 Bus2=356 phases=3 Linecode=2c_.0225 Length=14.477244 Units=m
New Line.LINECmpd_94 Bus1=121 Bus2=190 phases=3 Linecode=4c_.2_SAC Length=9.2805 Units=m
New Line.LINECmpd_95 Bus1=1829 Bus2=2435 phases=3 Linecode=35_SAC_PC Length=16.874523 Units=m
New Line.LINECmpd_96 Bus1=112 Bus2=194 phases=3 Linecode=2c_.0145 Length=7.445254 Units=m
New Line.LINECmpd_97 Bus1=498 Bus2=947 phases=3 Linecode=.0225 Length=12.9752 Units=m
New Line.LINECmpd_98 Bus1=446 Bus2=479 phases=3 Linecode=4c_.3_SAC Length=6.2796 Units=m
New Line.LINECmpd_99 Bus1=1323 Bus2=1627 phases=3 Linecode=2c_.0225 Length=10.00273 Units=m
New Line.LINECmpd_100 Bus1=1072 Bus2=1178 phases=3 Linecode=4c_.3_SAC Length=12.3453 Units=m
New Line.LINECmpd_101 Bus1=1178 Bus2=1424 phases=3 Linecode=.0225 Length=16.64178 Units=m
New Line.LINECmpd_102 Bus1=100 Bus2=281 phases=3 Linecode=4c_185_SAC_XC Length=23.80326 Units=m
New Line.LINECmpd_103 Bus1=498 Bus2=565 phases=3 Linecode=4c_.3_SAC Length=15.6342 Units=m
New Line.LINECmpd_104 Bus1=1213 Bus2=1567 phases=3 Linecode=2c_.04 Length=16.197961 Units=m
New Line.LINECmpd_105 Bus1=1573 Bus2=1957 phases=3 Linecode=5c_.1 Length=33.0905 Units=m
New Line.LINECmpd_106 Bus1=1427 Bus2=1586 phases=3 Linecode=3c_185_SAC_XC Length=13.71193 Units=m
New Line.LINECmpd_107 Bus1=1171 Bus2=1300 phases=3 Linecode=5c_.1 Length=9.234 Units=m
New Line.LINECmpd_108 Bus1=709 Bus2=792 phases=3 Linecode=4c_.3_SAC Length=9.0284 Units=m
New Line.LINECmpd_109 Bus1=2631 Bus2=2687 phases=3 Linecode=3c_185_SAC_XC Length=22.3901 Units=m
New Line.LINECmpd_110 Bus1=1 Bus2=22 phases=3 Linecode=4c_.2_SAC Length=9.58689 Units=m
New Line.LINECmpd_111 Bus1=2205 Bus2=2402 phases=3 Linecode=2c_.0225 Length=10.63366 Units=m
New Line.LINECmpd_112 Bus1=1263 Bus2=1743 phases=3 Linecode=2c_.04 Length=27.57181 Units=m
New Line.LINECmpd_113 Bus1=545 Bus2=1157 phases=3 Linecode=.0225 Length=13.733331 Units=m
New Line.LINECmpd_114 Bus1=1782 Bus2=1911 phases=3 Linecode=2c_.04 Length=13.50364 Units=m
New Line.LINECmpd_115 Bus1=426 Bus2=812 phases=3 Linecode=25_SAC_PC Length=8.197195 Units=m
New Line.LINECmpd_116 Bus1=442 Bus2=492 phases=3 Linecode=2c_.0225 Length=16.368865 Units=m
New Line.LINECmpd_117 Bus1=71 Bus2=91 phases=3 Linecode=2c_.0145 Length=8.08519 Units=m
New Line.LINECmpd_118 Bus1=1709 Bus2=2059 phases=3 Linecode=.0225 Length=12.79951 Units=m
New Line.LINECmpd_119 Bus1=2181 Bus2=2226 phases=3 Linecode=5c_.1 Length=6.6186 Units=m
New Line.LINECmpd_120 Bus1=1253 Bus2=1534 phases=3 Linecode=.0225 Length=14.08104 Units=m
New Line.LINECmpd_121 Bus1=746 Bus2=808 phases=3 Linecode=5c_.1 Length=5.00795 Units=m
New Line.LINECmpd_122 Bus1=2717 Bus2=2884 phases=3 Linecode=35_SAC_PC Length=18.4975 Units=m
New Line.LINECmpd_123 Bus1=642 Bus2=692 phases=3 Linecode=2c_.0225 Length=12.9534 Units=m
New Line.LINECmpd_124 Bus1=1262 Bus2=1420 phases=3 Linecode=2c_.04 Length=13.36221 Units=m
New Line.LINECmpd_125 Bus1=210 Bus2=261 phases=3 Linecode=2c_.0225 Length=8.32628 Units=m
New Line.LINECmpd_126 Bus1=745 Bus2=1030 phases=3 Linecode=2c_.0225 Length=8.66724 Units=m
New Line.LINECmpd_127 Bus1=830 Bus2=1112 phases=3 Linecode=4c_.2_SAC Length=23.56193 Units=m
New Line.LINECmpd_128 Bus1=72 Bus2=94 phases=3 Linecode=4c_.3_SAC Length=16.76471 Units=m
New Line.LINECmpd_129 Bus1=202 Bus2=217 phases=3 Linecode=2c_.0225 Length=14.32906 Units=m
New Line.LINECmpd_130 Bus1=664 Bus2=1227 phases=3 Linecode=2c_.04 Length=16.89586 Units=m
New Line.LINECmpd_131 Bus1=1957 Bus2=2110 phases=3 Linecode=5c_.1 Length=10.24087 Units=m
New Line.LINECmpd_132 Bus1=1754 Bus2=1928 phases=3 Linecode=35_SAC_PC Length=1.129622 Units=m
New Line.LINECmpd_133 Bus1=418 Bus2=622 phases=3 Linecode=2c_.0225 Length=16.04894 Units=m
New Line.LINECmpd_134 Bus1=1288 Bus2=1357 phases=3 Linecode=.04 Length=8.2043 Units=m
New Line.LINECmpd_135 Bus1=822 Bus2=917 phases=3 Linecode=4c_.3_SAC Length=9.8333 Units=m
New Line.LINECmpd_136 Bus1=595 Bus2=642 phases=3 Linecode=5c_.1 Length=6.41847 Units=m
New Line.LINECmpd_137 Bus1=917 Bus2=1072 phases=3 Linecode=4c_.3_SAC Length=7.28442 Units=m
New Line.LINECmpd_138 Bus1=1624 Bus2=2176 phases=3 Linecode=.0225 Length=16.369176 Units=m
New Line.LINECmpd_139 Bus1=1512 Bus2=1573 phases=3 Linecode=5c_.1 Length=4.76738 Units=m
New Line.LINECmpd_140 Bus1=1138 Bus2=1253 phases=3 Linecode=4c_.2_SAC Length=15.91183 Units=m
New Line.LINECmpd_141 Bus1=1133 Bus2=1183 phases=3 Linecode=.0225 Length=8.1488 Units=m
New Line.LINECmpd_142 Bus1=1371 Bus2=1598 phases=3 Linecode=2c_.0225 Length=11.17768 Units=m
New Line.LINECmpd_143 Bus1=769 Bus2=830 phases=3 Linecode=4c_.2_SAC Length=8.0349 Units=m
New Line.LINECmpd_144 Bus1=253 Bus2=438 phases=3 Linecode=2c_.02 Length=11.93248 Units=m
New Line.LINECmpd_145 Bus1=1348 Bus2=1395 phases=3 Linecode=5c_.1 Length=10.718 Units=m
New Line.LINECmpd_146 Bus1=1562 Bus2=2023 phases=3 Linecode=.0225 Length=14.646965 Units=m
New Line.LINECmpd_147 Bus1=1418 Bus2=1666 phases=3 Linecode=2c_.0225 Length=9.85098 Units=m
New Line.LINECmpd_148 Bus1=1033 Bus2=1171 phases=3 Linecode=5c_.1 Length=5.47407 Units=m
New Line.LINECmpd_149 Bus1=1593 Bus2=1731 phases=3 Linecode=3c_185_SAC_XC Length=22.01054 Units=m
New Line.LINECmpd_150 Bus1=545 Bus2=616 phases=3 Linecode=4c_.2_SAC Length=12.1708 Units=m
New Line.LINECmpd_151 Bus1=2687 Bus2=2717 phases=3 Linecode=3c_185_SAC_XC Length=15.601686 Units=m
New Line.LINECmpd_152 Bus1=1453 Bus2=1559 phases=3 Linecode=.0225 Length=12.547197 Units=m
New Line.LINECmpd_153 Bus1=2666 Bus2=2696 phases=3 Linecode=3c_185_SAC_XC Length=3.22812 Units=m
New Line.LINECmpd_154 Bus1=1227 Bus2=1269 phases=3 Linecode=2c_.04 Length=12.2485 Units=m
New Line.LINECmpd_155 Bus1=2566 Bus2=2643 phases=3 Linecode=35_SAC_PC Length=10.386744 Units=m
New Line.LINECmpd_156 Bus1=534 Bus2=749 phases=3 Linecode=2c_.0225 Length=10.185048 Units=m
New Line.LINECmpd_157 Bus1=1381 Bus2=1427 phases=3 Linecode=3c_185_SAC_XC Length=9.3782 Units=m
New Line.LINECmpd_158 Bus1=664 Bus2=742 phases=3 Linecode=4c_.2_SAC Length=15.0992 Units=m
New Line.LINECmpd_159 Bus1=1085 Bus2=1167 phases=3 Linecode=.0225 Length=8.84579 Units=m
New Line.LINECmpd_160 Bus1=240 Bus2=390 phases=3 Linecode=2c_.0225 Length=14.364778 Units=m
New Line.LINECmpd_161 Bus1=1193 Bus2=1390 phases=3 Linecode=2c_.0225 Length=9.96326 Units=m
New Line.LINECmpd_162 Bus1=1686 Bus2=1885 phases=3 Linecode=2c_.0145 Length=10.22189 Units=m
New Line.LINECmpd_163 Bus1=332 Bus2=399 phases=3 Linecode=4c_.3_SAC Length=9.50691 Units=m
New Line.LINECmpd_164 Bus1=1253 Bus2=1316 phases=3 Linecode=4c_.2_SAC Length=12.2122 Units=m
New Line.LINECmpd_165 Bus1=301 Bus2=410 phases=3 Linecode=25_SAC_XC Length=15.47059 Units=m
New Line.LINECmpd_166 Bus1=220 Bus2=240 phases=3 Linecode=2c_.0225 Length=15.5507 Units=m
New Line.LINECmpd_167 Bus1=303 Bus2=416 phases=3 Linecode=4c_185_SAC_XC Length=9.04019 Units=m
New Line.LINECmpd_168 Bus1=287 Bus2=310 phases=3 Linecode=2c_.0225 Length=16.65073 Units=m
New Line.LINECmpd_169 Bus1=524 Bus2=595 phases=3 Linecode=5c_.1 Length=2.13128 Units=m
New Line.LINECmpd_170 Bus1=108 Bus2=121 phases=3 Linecode=4c_.2_SAC Length=4.7399 Units=m
New Line.LINECmpd_171 Bus1=281 Bus2=303 phases=3 Linecode=4c_185_SAC_XC Length=5.7737 Units=m
New Line.LINECmpd_172 Bus1=416 Bus2=451 phases=3 Linecode=4c_.0145 Length=11.1668 Units=m
New Line.LINECmpd_173 Bus1=94 Bus2=100 phases=3 Linecode=4c_.2_SAC Length=2.82654 Units=m
New Line.LINECmpd_174 Bus1=514 Bus2=557 phases=3 Linecode=2c_.0145 Length=14.23656 Units=m
New Line.LINECmpd_175 Bus1=442 Bus2=493 phases=3 Linecode=5c_.1 Length=8.4265 Units=m
New Line.LINECmpd_176 Bus1=1559 Bus2=1619 phases=3 Linecode=.0225 Length=4.3057 Units=m
New Line.LINECmpd_177 Bus1=1462 Bus2=1512 phases=3 Linecode=5c_.1 Length=11.4584 Units=m
New Line.LINECmpd_178 Bus1=1281 Bus2=1374 phases=3 Linecode=.0225 Length=7.60128 Units=m
New Line.LINECmpd_179 Bus1=1222 Bus2=1263 phases=3 Linecode=4c_.3_SAC Length=4.7129 Units=m
New Line.LINECmpd_180 Bus1=1147 Bus2=1195 phases=3 Linecode=2c_.04 Length=11.0656 Units=m
New Line.LINECmpd_181 Bus1=303 Bus2=370 phases=3 Linecode=25_SAC_XC Length=26.37903 Units=m
New Line.LINECmpd_182 Bus1=492 Bus2=722 phases=3 Linecode=2c_.0225 Length=14.056034 Units=m
New Line.LINECmpd_183 Bus1=1386 Bus2=1505 phases=3 Linecode=.0225 Length=6.265742 Units=m
New Line.LINECmpd_184 Bus1=947 Bus2=1011 phases=3 Linecode=.0225 Length=7.3093 Units=m
New Line.LINECmpd_185 Bus1=1791 Bus2=1832 phases=3 Linecode=3c_185_SAC_XC Length=5.7028 Units=m
New Line.LINECmpd_186 Bus1=590 Bus2=684 phases=3 Linecode=4c_.3_SAC Length=14.9693 Units=m
New Line.LINECmpd_187 Bus1=1754 Bus2=1791 phases=3 Linecode=3c_185_SAC_XC Length=2.01246 Units=m
New Line.LINECmpd_188 Bus1=1586 Bus2=1647 phases=3 Linecode=3c_185_SAC_XC Length=0.520876 Units=m
New Line.LINECmpd_189 Bus1=1019 Bus2=1076 phases=3 Linecode=2c_.0225 Length=8.0609 Units=m
New Line.LINECmpd_190 Bus1=503 Bus2=571 phases=3 Linecode=16_PSC Length=11.9443 Units=m
New Line.LINECmpd_191 Bus1=910 Bus2=977 phases=3 Linecode=.0225 Length=8.5417 Units=m
New Line.LINECmpd_192 Bus1=311 Bus2=344 phases=3 Linecode=2c_.0225 Length=5.93404 Units=m
New Line.LINECmpd_193 Bus1=231 Bus2=253 phases=3 Linecode=2c_.02 Length=7.35431 Units=m
New Line.LINECmpd_194 Bus1=466 Bus2=503 phases=3 Linecode=4c_185_SAC_XC Length=4.3234 Units=m
New Line.LINECmpd_195 Bus1=1534 Bus2=1594 phases=3 Linecode=.0225 Length=6.988 Units=m
New Line.LINECmpd_196 Bus1=66 Bus2=87 phases=3 Linecode=2c_.0145 Length=11.91332 Units=m
New Line.LINECmpd_197 Bus1=1263 Bus2=1307 phases=3 Linecode=4c_.3_SAC Length=1.836 Units=m
New Line.LINECmpd_198 Bus1=493 Bus2=534 phases=3 Linecode=2c_.0225 Length=6.47797 Units=m
New Line.LINECmpd_199 Bus1=416 Bus2=466 phases=3 Linecode=4c_185_SAC_XC Length=9.3908 Units=m
New Line.LINECmpd_200 Bus1=616 Bus2=664 phases=3 Linecode=4c_.2_SAC Length=4.14887 Units=m
New Line.LINECmpd_201 Bus1=466 Bus2=502 phases=3 Linecode=2c_.0145 Length=12.2509 Units=m
New Line.LINECmpd_202 Bus1=1492 Bus2=1547 phases=3 Linecode=2c_.04 Length=12.604 Units=m
New Line.LINECmpd_203 Bus1=399 Bus2=429 phases=3 Linecode=4c_.3_SAC Length=11.0411 Units=m
New Line.LINECmpd_204 Bus1=100 Bus2=108 phases=3 Linecode=4c_.2_SAC Length=5.6665 Units=m
New Line.LINECmpd_205 Bus1=281 Bus2=304 phases=3 Linecode=2c_.0145 Length=9.2816 Units=m
New Line.LINECmpd_206 Bus1=1300 Bus2=1348 phases=3 Linecode=5c_.1 Length=3.94628 Units=m
New Line.LINECmpd_207 Bus1=287 Bus2=311 phases=3 Linecode=5c_.1 Length=3.2875 Units=m
New Line.LINECmpd_208 Bus1=642 Bus2=693 phases=3 Linecode=5c_.1 Length=5.0897 Units=m
