!11 kV connectors

New Line.LINE1 Bus1=1 Bus2=2 phases=3 Linecode=11_1 Length=1 Units=km

!Feeder 2
New Line.LINE21 Bus1=21 Bus2=22 phases=3 Linecode=4c_70 Length=1.2678 Units=m
New Line.LINE22 Bus1=22 Bus2=23 phases=3 Linecode=4c_70 Length=0.14701 Units=m
New Line.LINE23 Bus1=23 Bus2=24 phases=3 Linecode=4c_70 Length=0.11539 Units=m
New Line.LINE24 Bus1=24 Bus2=25 phases=3 Linecode=4c_70 Length=0.091935 Units=m
New Line.LINE25 Bus1=25 Bus2=26 phases=3 Linecode=4c_70 Length=0.10826 Units=m
New Line.LINE26 Bus1=26 Bus2=27 phases=3 Linecode=4c_70 Length=10.9021 Units=m
New Line.LINE27 Bus1=27 Bus2=28 phases=3 Linecode=4c_70 Length=0.40028 Units=m
New Line.LINE28 Bus1=28 Bus2=29 phases=3 Linecode=4c_70 Length=0.298 Units=m
New Line.LINE29 Bus1=29 Bus2=210 phases=3 Linecode=4c_70 Length=0.37317 Units=m
New Line.LINE210 Bus1=210 Bus2=211 phases=3 Linecode=4c_70 Length=0.39461 Units=m
New Line.LINE211 Bus1=211 Bus2=212 phases=3 Linecode=4c_70 Length=0.35891 Units=m
New Line.LINE212 Bus1=212 Bus2=213 phases=3 Linecode=4c_70 Length=0.43804 Units=m
New Line.LINE213 Bus1=213 Bus2=214 phases=3 Linecode=4c_70 Length=7.3529 Units=m
New Line.LINE214 Bus1=214 Bus2=215 phases=3 Linecode=4c_70 Length=11.2962 Units=m
New Line.LINE215 Bus1=215 Bus2=216 phases=3 Linecode=4c_70 Length=3.6224 Units=m
New Line.LINE216 Bus1=216 Bus2=217 phases=3 Linecode=4c_70 Length=0.31933 Units=m
New Line.LINE217 Bus1=216 Bus2=218 phases=3 Linecode=4c_70 Length=3.9213 Units=m
New Line.LINE218 Bus1=217 Bus2=219 phases=3 Linecode=4c_70 Length=0.09014 Units=m
New Line.LINE219 Bus1=218 Bus2=220 phases=3 Linecode=4c_70 Length=6.5359 Units=m
New Line.LINE220 Bus1=219 Bus2=221 phases=3 Linecode=4c_70 Length=0.095854 Units=m
New Line.LINE221 Bus1=220 Bus2=222 phases=3 Linecode=4c_70 Length=0.10668 Units=m
New Line.LINE222 Bus1=221 Bus2=223 phases=3 Linecode=4c_70 Length=0.076118 Units=m
New Line.LINE223 Bus1=222 Bus2=224 phases=3 Linecode=4c_70 Length=0.201 Units=m
New Line.LINE224 Bus1=223 Bus2=225 phases=3 Linecode=4c_70 Length=0.138 Units=m
New Line.LINE225 Bus1=224 Bus2=226 phases=3 Linecode=4c_70 Length=0.15048 Units=m
New Line.LINE226 Bus1=225 Bus2=227 phases=3 Linecode=4c_70 Length=0.29149 Units=m
New Line.LINE227 Bus1=226 Bus2=228 phases=3 Linecode=4c_70 Length=0.18296 Units=m
New Line.LINE228 Bus1=227 Bus2=229 phases=3 Linecode=4c_70 Length=5.9092 Units=m
New Line.LINE229 Bus1=228 Bus2=230 phases=3 Linecode=4c_70 Length=0.22495 Units=m
New Line.LINE230 Bus1=229 Bus2=231 phases=3 Linecode=4c_70 Length=0.615 Units=m
New Line.LINE231 Bus1=230 Bus2=232 phases=3 Linecode=4c_70 Length=0.18524 Units=m
New Line.LINE232 Bus1=232 Bus2=233 phases=3 Linecode=4c_70 Length=0.30245 Units=m
New Line.LINE233 Bus1=233 Bus2=234 phases=3 Linecode=4c_70 Length=0.27631 Units=m
New Line.LINE234 Bus1=234 Bus2=235 phases=3 Linecode=4c_70 Length=0.29119 Units=m
New Line.LINE235 Bus1=235 Bus2=236 phases=3 Linecode=4c_70 Length=0.068154 Units=m
New Line.LINE236 Bus1=236 Bus2=237 phases=3 Linecode=4c_70 Length=0.16313 Units=m
New Line.LINE237 Bus1=237 Bus2=238 phases=3 Linecode=4c_70 Length=0.39768 Units=m
New Line.LINE238 Bus1=238 Bus2=239 phases=3 Linecode=4c_70 Length=7.942 Units=m
New Line.LINE239 Bus1=239 Bus2=240 phases=3 Linecode=4c_70 Length=1.8421 Units=m
New Line.LINE240 Bus1=240 Bus2=241 phases=3 Linecode=4c_70 Length=0.52269 Units=m
New Line.LINE241 Bus1=240 Bus2=242 phases=3 Linecode=4c_70 Length=2.3487 Units=m
New Line.LINE242 Bus1=242 Bus2=243 phases=3 Linecode=4c_70 Length=0.45549 Units=m
New Line.LINE243 Bus1=243 Bus2=244 phases=3 Linecode=4c_70 Length=0.38293 Units=m
New Line.LINE244 Bus1=244 Bus2=245 phases=3 Linecode=4c_70 Length=0.42216 Units=m
New Line.LINE245 Bus1=245 Bus2=246 phases=3 Linecode=4c_70 Length=0.48601 Units=m
New Line.LINE246 Bus1=246 Bus2=247 phases=3 Linecode=4c_70 Length=0.7176 Units=m
New Line.LINE247 Bus1=247 Bus2=248 phases=3 Linecode=4c_70 Length=0.54623 Units=m
New Line.LINE248 Bus1=248 Bus2=249 phases=3 Linecode=4c_70 Length=0.47164 Units=m
New Line.LINE249 Bus1=249 Bus2=250 phases=3 Linecode=4c_70 Length=0.30936 Units=m
New Line.LINE250 Bus1=250 Bus2=251 phases=3 Linecode=4c_70 Length=0.3128 Units=m
New Line.LINE251 Bus1=251 Bus2=252 phases=3 Linecode=4c_70 Length=0.35569 Units=m
New Line.LINE252 Bus1=252 Bus2=253 phases=3 Linecode=4c_70 Length=0.65323 Units=m
New Line.LINE253 Bus1=253 Bus2=254 phases=3 Linecode=4c_70 Length=5.6025 Units=m
New Line.LINE254 Bus1=254 Bus2=255 phases=3 Linecode=4c_70 Length=0.16388 Units=m
New Line.LINE255 Bus1=255 Bus2=256 phases=3 Linecode=4c_70 Length=0.22588 Units=m
New Line.LINE256 Bus1=256 Bus2=257 phases=3 Linecode=4c_70 Length=0.23492 Units=m
New Line.LINE257 Bus1=257 Bus2=258 phases=3 Linecode=4c_70 Length=0.19624 Units=m
New Line.LINE258 Bus1=258 Bus2=259 phases=3 Linecode=4c_70 Length=0.28481 Units=m
New Line.LINE259 Bus1=259 Bus2=260 phases=3 Linecode=4c_70 Length=0.30895 Units=m
New Line.LINE260 Bus1=260 Bus2=261 phases=3 Linecode=4c_70 Length=0.34812 Units=m
New Line.LINE261 Bus1=261 Bus2=262 phases=3 Linecode=4c_70 Length=0.3491 Units=m
New Line.LINE262 Bus1=262 Bus2=263 phases=3 Linecode=4c_70 Length=0.24452 Units=m
New Line.LINE263 Bus1=263 Bus2=264 phases=3 Linecode=4c_70 Length=0.326 Units=m
New Line.LINE264 Bus1=264 Bus2=265 phases=3 Linecode=4c_70 Length=0.601 Units=m
New Line.LINE265 Bus1=265 Bus2=266 phases=3 Linecode=4c_300_SAC Length=0.47332 Units=m
New Line.LINE266 Bus1=265 Bus2=267 phases=3 Linecode=4c_.1 Length=4.28 Units=m
New Line.LINE267 Bus1=266 Bus2=268 phases=3 Linecode=4c_300_SAC Length=0.72048 Units=m
New Line.LINE268 Bus1=267 Bus2=269 phases=3 Linecode=4c_.1 Length=0.642 Units=m
New Line.LINE269 Bus1=267 Bus2=270 phases=3 Linecode=4c_.1 Length=5.9972 Units=m
New Line.LINE270 Bus1=268 Bus2=271 phases=3 Linecode=4c_300_SAC Length=1.0686 Units=m
New Line.LINE271 Bus1=270 Bus2=272 phases=3 Linecode=4c_.1 Length=0.68171 Units=m
New Line.LINE272 Bus1=270 Bus2=273 phases=3 Linecode=4c_.1 Length=2.604 Units=m
New Line.LINE273 Bus1=271 Bus2=274 phases=3 Linecode=4c_300_SAC Length=0.85425 Units=m
New Line.LINE274 Bus1=273 Bus2=275 phases=3 Linecode=4c_.1 Length=0.64295 Units=m
New Line.LINE275 Bus1=273 Bus2=276 phases=3 Linecode=4c_.1 Length=6.4225 Units=m
New Line.LINE276 Bus1=274 Bus2=277 phases=3 Linecode=4c_300_SAC Length=0.79964 Units=m
New Line.LINE277 Bus1=276 Bus2=278 phases=3 Linecode=4c_.1 Length=0.61537 Units=m
New Line.LINE278 Bus1=276 Bus2=279 phases=3 Linecode=4c_.1 Length=0.71391 Units=m
New Line.LINE279 Bus1=277 Bus2=280 phases=3 Linecode=4c_300_SAC Length=0.56945 Units=m
New Line.LINE280 Bus1=279 Bus2=281 phases=3 Linecode=4c_.1 Length=0.57213 Units=m
New Line.LINE281 Bus1=279 Bus2=282 phases=3 Linecode=4c_.1 Length=4.0611 Units=m
New Line.LINE282 Bus1=280 Bus2=283 phases=3 Linecode=4c_300_SAC Length=0.4081 Units=m
New Line.LINE283 Bus1=282 Bus2=284 phases=3 Linecode=4c_.1 Length=0.40328 Units=m
New Line.LINE284 Bus1=283 Bus2=285 phases=3 Linecode=4c_300_SAC Length=0.391 Units=m
New Line.LINE285 Bus1=284 Bus2=286 phases=3 Linecode=4c_.1 Length=1.0115 Units=m
New Line.LINE286 Bus1=285 Bus2=287 phases=3 Linecode=4c_300_SAC Length=0.36271 Units=m
New Line.LINE287 Bus1=286 Bus2=288 phases=3 Linecode=4c_.1 Length=0.575 Units=m
New Line.LINE288 Bus1=286 Bus2=289 phases=3 Linecode=4c_.1 Length=4.9754 Units=m
New Line.LINE289 Bus1=287 Bus2=290 phases=3 Linecode=4c_300_SAC Length=0.9651 Units=m
New Line.LINE290 Bus1=289 Bus2=291 phases=3 Linecode=4c_.1 Length=0.60701 Units=m
New Line.LINE291 Bus1=289 Bus2=292 phases=3 Linecode=4c_.1 Length=4.2035 Units=m
New Line.LINE292 Bus1=290 Bus2=293 phases=3 Linecode=4c_300_SAC Length=0.24449 Units=m
New Line.LINE293 Bus1=290 Bus2=294 phases=3 Linecode=4c_300_SAC Length=1.0592 Units=m
New Line.LINE294 Bus1=292 Bus2=295 phases=3 Linecode=4c_.1 Length=0.56542 Units=m
New Line.LINE295 Bus1=292 Bus2=296 phases=3 Linecode=4c_.1 Length=5.4418 Units=m
New Line.LINE296 Bus1=293 Bus2=297 phases=3 Linecode=4c_300_SAC Length=0.22561 Units=m
New Line.LINE297 Bus1=294 Bus2=298 phases=3 Linecode=4c_300_SAC Length=5.4917 Units=m
New Line.LINE298 Bus1=296 Bus2=299 phases=3 Linecode=4c_.1 Length=0.534 Units=m
New Line.LINE299 Bus1=296 Bus2=2100 phases=3 Linecode=4c_.1 Length=2.4912 Units=m
New Line.LINE2100 Bus1=297 Bus2=2101 phases=3 Linecode=4c_300_SAC Length=0.138 Units=m
New Line.LINE2101 Bus1=298 Bus2=2102 phases=3 Linecode=4c_300_SAC Length=0.97602 Units=m
New Line.LINE2102 Bus1=298 Bus2=2103 phases=3 Linecode=4c_300_SAC Length=3.9741 Units=m
New Line.LINE2103 Bus1=2100 Bus2=2104 phases=3 Linecode=4c_.1 Length=3.9957 Units=m
New Line.LINE2104 Bus1=2100 Bus2=2105 phases=3 Linecode=4c_.06 Length=0.12802 Units=m
New Line.LINE2105 Bus1=2101 Bus2=2106 phases=3 Linecode=4c_300_SAC Length=0.16744 Units=m
New Line.LINE2106 Bus1=2102 Bus2=2107 phases=3 Linecode=4c_300_SAC Length=0.22539 Units=m
New Line.LINE2107 Bus1=2103 Bus2=2108 phases=3 Linecode=35_SAC_XC Length=1.4417 Units=m
New Line.LINE2108 Bus1=2103 Bus2=2109 phases=3 Linecode=4c_300_SAC Length=6.2021 Units=m
New Line.LINE2109 Bus1=2104 Bus2=2110 phases=3 Linecode=4c_.1 Length=6.2731 Units=m
New Line.LINE2110 Bus1=2105 Bus2=2111 phases=3 Linecode=4c_.06 Length=0.14339 Units=m
New Line.LINE2111 Bus1=2106 Bus2=2112 phases=3 Linecode=4c_300_SAC Length=0.115 Units=m
New Line.LINE2112 Bus1=2107 Bus2=2113 phases=3 Linecode=4c_300_SAC Length=0.20822 Units=m
New Line.LINE2113 Bus1=2108 Bus2=2114 phases=3 Linecode=35_SAC_XC Length=0.11424 Units=m
New Line.LINE2114 Bus1=2109 Bus2=2115 phases=3 Linecode=25_SAC_XC Length=18.6333 Units=m
New Line.LINE2115 Bus1=2109 Bus2=2116 phases=3 Linecode=4c_300_SAC Length=3.71 Units=m
New Line.LINE2116 Bus1=2110 Bus2=2117 phases=3 Linecode=4c_.1 Length=6.8138 Units=m
New Line.LINE2117 Bus1=2111 Bus2=2118 phases=3 Linecode=4c_.06 Length=0.1651 Units=m
New Line.LINE2118 Bus1=2112 Bus2=2119 phases=3 Linecode=4c_300_SAC Length=0.16744 Units=m
New Line.LINE2119 Bus1=2113 Bus2=2120 phases=3 Linecode=4c_300_SAC Length=0.19026 Units=m
New Line.LINE2120 Bus1=2114 Bus2=2121 phases=3 Linecode=35_SAC_XC Length=0.11322 Units=m
New Line.LINE2121 Bus1=2116 Bus2=2122 phases=3 Linecode=4c_300_SAC Length=3.578 Units=m
New Line.LINE2122 Bus1=2117 Bus2=2123 phases=3 Linecode=4c_.1 Length=0.24502 Units=m
New Line.LINE2123 Bus1=2118 Bus2=2124 phases=3 Linecode=4c_.06 Length=0.18768 Units=m
New Line.LINE2124 Bus1=2119 Bus2=2125 phases=3 Linecode=4c_300_SAC Length=0.57446 Units=m
New Line.LINE2125 Bus1=2120 Bus2=2126 phases=3 Linecode=4c_300_SAC Length=0.16323 Units=m
New Line.LINE2126 Bus1=2121 Bus2=2127 phases=3 Linecode=35_SAC_XC Length=0.11428 Units=m
New Line.LINE2127 Bus1=2122 Bus2=2128 phases=3 Linecode=4c_300_SAC Length=2.0533 Units=m
New Line.LINE2128 Bus1=2123 Bus2=2129 phases=3 Linecode=4c_.1 Length=0.19025 Units=m
New Line.LINE2129 Bus1=2124 Bus2=2130 phases=3 Linecode=4c_.06 Length=0.18768 Units=m
New Line.LINE2130 Bus1=2126 Bus2=2131 phases=3 Linecode=4c_300_SAC Length=0.24887 Units=m
New Line.LINE2131 Bus1=2127 Bus2=2132 phases=3 Linecode=35_SAC_XC Length=0.11385 Units=m
New Line.LINE2132 Bus1=2128 Bus2=2133 phases=3 Linecode=4c_300_SAC Length=2.2731 Units=m
New Line.LINE2133 Bus1=2129 Bus2=2134 phases=3 Linecode=4c_.1 Length=0.12572 Units=m
New Line.LINE2134 Bus1=2130 Bus2=2135 phases=3 Linecode=4c_.06 Length=0.16026 Units=m
New Line.LINE2135 Bus1=2131 Bus2=2136 phases=3 Linecode=4c_300_SAC Length=0.71943 Units=m
New Line.LINE2136 Bus1=2132 Bus2=2137 phases=3 Linecode=35_SAC_XC Length=0.11455 Units=m
New Line.LINE2137 Bus1=2133 Bus2=2138 phases=3 Linecode=4c_300_SAC Length=7.6821 Units=m
New Line.LINE2138 Bus1=2134 Bus2=2139 phases=3 Linecode=4c_.1 Length=0.17913 Units=m
New Line.LINE2139 Bus1=2135 Bus2=2140 phases=3 Linecode=4c_.06 Length=0.098858 Units=m
New Line.LINE2140 Bus1=2137 Bus2=2141 phases=3 Linecode=35_SAC_XC Length=0.11332 Units=m
New Line.LINE2141 Bus1=2138 Bus2=2142 phases=3 Linecode=4c_.5 Length=1.5452 Units=m
New Line.LINE2142 Bus1=2139 Bus2=2143 phases=3 Linecode=4c_.1 Length=0.32023 Units=m
New Line.LINE2143 Bus1=2140 Bus2=2144 phases=3 Linecode=4c_.06 Length=0.10465 Units=m
New Line.LINE2144 Bus1=2141 Bus2=2145 phases=3 Linecode=35_SAC_XC Length=0.11378 Units=m
New Line.LINE2145 Bus1=2142 Bus2=2146 phases=3 Linecode=4c_.5 Length=0.32006 Units=m
New Line.LINE2146 Bus1=2143 Bus2=2147 phases=3 Linecode=4c_.06 Length=1.2044 Units=m
New Line.LINE2147 Bus1=2143 Bus2=2148 phases=3 Linecode=4c_.06 Length=0.25849 Units=m
New Line.LINE2148 Bus1=2144 Bus2=2149 phases=3 Linecode=4c_.06 Length=1.1303 Units=m
New Line.LINE2149 Bus1=2145 Bus2=2150 phases=3 Linecode=35_SAC_XC Length=0.11411 Units=m
New Line.LINE2150 Bus1=2146 Bus2=2151 phases=3 Linecode=4c_.5 Length=0.27351 Units=m
New Line.LINE2151 Bus1=2147 Bus2=2152 phases=3 Linecode=4c_.06 Length=0.9003 Units=m
New Line.LINE2152 Bus1=2148 Bus2=2153 phases=3 Linecode=4c_.06 Length=1.1967 Units=m
New Line.LINE2153 Bus1=2149 Bus2=2154 phases=3 Linecode=4c_.06 Length=5.0734 Units=m
New Line.LINE2154 Bus1=2151 Bus2=2155 phases=3 Linecode=4c_.5 Length=0.25111 Units=m
New Line.LINE2155 Bus1=2152 Bus2=2156 phases=3 Linecode=4c_.06 Length=1.0219 Units=m
New Line.LINE2156 Bus1=2153 Bus2=2157 phases=3 Linecode=4c_.06 Length=1.0863 Units=m
New Line.LINE2157 Bus1=2154 Bus2=2158 phases=3 Linecode=4c_.06 Length=0.35328 Units=m
New Line.LINE2158 Bus1=2155 Bus2=2159 phases=3 Linecode=4c_.5 Length=0.24535 Units=m
New Line.LINE2159 Bus1=2156 Bus2=2160 phases=3 Linecode=4c_.06 Length=0.816 Units=m
New Line.LINE2160 Bus1=2157 Bus2=2161 phases=3 Linecode=4c_.06 Length=2.8635 Units=m
New Line.LINE2161 Bus1=2158 Bus2=2162 phases=3 Linecode=4c_.06 Length=0.24444 Units=m
New Line.LINE2162 Bus1=2159 Bus2=2163 phases=3 Linecode=4c_.5 Length=0.32177 Units=m
New Line.LINE2163 Bus1=2160 Bus2=2164 phases=3 Linecode=4c_.06 Length=0.68062 Units=m
New Line.LINE2164 Bus1=2161 Bus2=2165 phases=3 Linecode=4c_.06 Length=6.5871 Units=m
New Line.LINE2165 Bus1=2162 Bus2=2166 phases=3 Linecode=4c_.06 Length=0.16586 Units=m
New Line.LINE2166 Bus1=2163 Bus2=2167 phases=3 Linecode=4c_.5 Length=0.39623 Units=m
New Line.LINE2167 Bus1=2164 Bus2=2168 phases=3 Linecode=4c_.06 Length=0.8392 Units=m
New Line.LINE2168 Bus1=2165 Bus2=2169 phases=3 Linecode=2c_.0225 Length=7.3715 Units=m
New Line.LINE2169 Bus1=2165 Bus2=2170 phases=3 Linecode=4c_.06 Length=2.1281 Units=m
New Line.LINE2170 Bus1=2166 Bus2=2171 phases=3 Linecode=4c_.06 Length=0.3027 Units=m
New Line.LINE2171 Bus1=2167 Bus2=2172 phases=3 Linecode=4c_.5 Length=2.8593 Units=m
New Line.LINE2172 Bus1=2168 Bus2=2173 phases=3 Linecode=4c_.06 Length=0.90468 Units=m
New Line.LINE2173 Bus1=2169 Bus2=2174 phases=3 Linecode=2c_.0225 Length=0.4837 Units=m
New Line.LINE2174 Bus1=2170 Bus2=2175 phases=3 Linecode=2c_.0225 Length=7.2098 Units=m
New Line.LINE2175 Bus1=2170 Bus2=2176 phases=3 Linecode=4c_.06 Length=10.1945 Units=m
New Line.LINE2176 Bus1=2171 Bus2=2177 phases=3 Linecode=4c_.06 Length=0.41015 Units=m
New Line.LINE2177 Bus1=2172 Bus2=2178 phases=3 Linecode=4c_.5 Length=9.9495 Units=m
New Line.LINE2178 Bus1=2173 Bus2=2179 phases=3 Linecode=4c_.06 Length=0.57899 Units=m
New Line.LINE2179 Bus1=2174 Bus2=2180 phases=3 Linecode=2c_.0225 Length=0.3844 Units=m
New Line.LINE2180 Bus1=2175 Bus2=2181 phases=3 Linecode=2c_.0225 Length=7.5749 Units=m
New Line.LINE2181 Bus1=2176 Bus2=2182 phases=3 Linecode=2c_.007 Length=0.27554 Units=m
New Line.LINE2182 Bus1=2176 Bus2=2183 phases=3 Linecode=4c_.06 Length=3.0002 Units=m
New Line.LINE2183 Bus1=2177 Bus2=2184 phases=3 Linecode=4c_.06 Length=0.8107 Units=m
New Line.LINE2184 Bus1=2178 Bus2=2185 phases=3 Linecode=4c_.5 Length=13.337 Units=m
New Line.LINE2185 Bus1=2179 Bus2=2186 phases=3 Linecode=4c_.06 Length=6.995 Units=m
New Line.LINE2186 Bus1=2180 Bus2=2187 phases=3 Linecode=2c_.0225 Length=0.19807 Units=m
New Line.LINE2187 Bus1=2182 Bus2=2188 phases=3 Linecode=2c_.007 Length=0.20951 Units=m
New Line.LINE2188 Bus1=2183 Bus2=2189 phases=3 Linecode=2c_.0225 Length=7.4458 Units=m
New Line.LINE2189 Bus1=2183 Bus2=2190 phases=3 Linecode=4c_.06 Length=4.0245 Units=m
New Line.LINE2190 Bus1=2184 Bus2=2191 phases=3 Linecode=4c_.06 Length=1.4826 Units=m
New Line.LINE2191 Bus1=2185 Bus2=2192 phases=3 Linecode=4c_.5 Length=4.6277 Units=m
New Line.LINE2192 Bus1=2186 Bus2=2193 phases=3 Linecode=4c_.06 Length=1.6496 Units=m
New Line.LINE2193 Bus1=2187 Bus2=2194 phases=3 Linecode=2c_.0225 Length=0.33179 Units=m
New Line.LINE2194 Bus1=2188 Bus2=2195 phases=3 Linecode=2c_.007 Length=0.19228 Units=m
New Line.LINE2195 Bus1=2189 Bus2=2196 phases=3 Linecode=2c_.0225 Length=5.1426 Units=m
New Line.LINE2196 Bus1=2190 Bus2=2197 phases=3 Linecode=2c_.0225 Length=7.7733 Units=m
New Line.LINE2197 Bus1=2190 Bus2=2198 phases=3 Linecode=4c_.06 Length=5.7798 Units=m
New Line.LINE2198 Bus1=2191 Bus2=2199 phases=3 Linecode=4c_.06 Length=1.6369 Units=m
New Line.LINE2199 Bus1=2192 Bus2=2200 phases=3 Linecode=4c_.5 Length=4.134 Units=m
New Line.LINE2200 Bus1=2193 Bus2=2201 phases=3 Linecode=4c_.06 Length=2.9151 Units=m
New Line.LINE2201 Bus1=2194 Bus2=2202 phases=3 Linecode=2c_.0225 Length=0.33984 Units=m
New Line.LINE2202 Bus1=2195 Bus2=2203 phases=3 Linecode=2c_.007 Length=0.41155 Units=m
New Line.LINE2203 Bus1=2197 Bus2=2204 phases=3 Linecode=2c_.0225 Length=0.57905 Units=m
New Line.LINE2204 Bus1=2198 Bus2=2205 phases=3 Linecode=4c_.06 Length=1.9267 Units=m
New Line.LINE2205 Bus1=2199 Bus2=2206 phases=3 Linecode=2c_.0225 Length=0.49573 Units=m
New Line.LINE2206 Bus1=2199 Bus2=2207 phases=3 Linecode=4c_.06 Length=1.582 Units=m
New Line.LINE2207 Bus1=2200 Bus2=2208 phases=3 Linecode=4c_.5 Length=0.31369 Units=m
New Line.LINE2208 Bus1=2201 Bus2=2209 phases=3 Linecode=2c_.0225 Length=7.8473 Units=m
New Line.LINE2209 Bus1=2201 Bus2=2210 phases=3 Linecode=4c_.06 Length=12.6298 Units=m
New Line.LINE2210 Bus1=2202 Bus2=2211 phases=3 Linecode=2c_.0225 Length=1.7807 Units=m
New Line.LINE2211 Bus1=2203 Bus2=2212 phases=3 Linecode=4_PSC Length=0.26446 Units=m
New Line.LINE2212 Bus1=2204 Bus2=2213 phases=3 Linecode=2c_.0225 Length=0.23119 Units=m
New Line.LINE2213 Bus1=2205 Bus2=2214 phases=3 Linecode=4c_.06 Length=1.2534 Units=m
New Line.LINE2214 Bus1=2206 Bus2=2215 phases=3 Linecode=2c_.0225 Length=0.26681 Units=m
New Line.LINE2215 Bus1=2207 Bus2=2216 phases=3 Linecode=2c_.007 Length=0.18928 Units=m
New Line.LINE2216 Bus1=2207 Bus2=2217 phases=3 Linecode=4c_.06 Length=1.9147 Units=m
New Line.LINE2217 Bus1=2208 Bus2=2218 phases=3 Linecode=4c_.5 Length=0.25139 Units=m
New Line.LINE2218 Bus1=2209 Bus2=2219 phases=3 Linecode=2c_.0225 Length=5.133 Units=m
New Line.LINE2219 Bus1=2210 Bus2=2220 phases=3 Linecode=2c_.0225 Length=7.7335 Units=m
New Line.LINE2220 Bus1=2210 Bus2=2221 phases=3 Linecode=4c_.06 Length=3.3509 Units=m
New Line.LINE2221 Bus1=2211 Bus2=2222 phases=3 Linecode=2c_.0225 Length=5.1057 Units=m
New Line.LINE2222 Bus1=2211 Bus2=2223 phases=3 Linecode=2c_.0225 Length=5.1057 Units=m
New Line.LINE2223 Bus1=2212 Bus2=2224 phases=3 Linecode=4_PSC Length=0.21543 Units=m
New Line.LINE2224 Bus1=2213 Bus2=2225 phases=3 Linecode=2c_.0225 Length=0.15902 Units=m
New Line.LINE2225 Bus1=2214 Bus2=2226 phases=3 Linecode=4c_.06 Length=1.4148 Units=m
New Line.LINE2226 Bus1=2215 Bus2=2227 phases=3 Linecode=2c_.0225 Length=0.34979 Units=m
New Line.LINE2227 Bus1=2216 Bus2=2228 phases=3 Linecode=2c_.007 Length=0.2594 Units=m
New Line.LINE2228 Bus1=2217 Bus2=2229 phases=3 Linecode=2c_.0225 Length=7.733 Units=m
New Line.LINE2229 Bus1=2217 Bus2=2230 phases=3 Linecode=4c_.06 Length=2.803 Units=m
New Line.LINE2230 Bus1=2218 Bus2=2231 phases=3 Linecode=4c_.5 Length=0.32995 Units=m
New Line.LINE2231 Bus1=2220 Bus2=2232 phases=3 Linecode=2c_.0225 Length=4.1663 Units=m
New Line.LINE2232 Bus1=2221 Bus2=2233 phases=3 Linecode=4c_.06 Length=0.21513 Units=m
New Line.LINE2233 Bus1=2221 Bus2=2234 phases=3 Linecode=4c_.06 Length=3.6388 Units=m
New Line.LINE2234 Bus1=2224 Bus2=2235 phases=3 Linecode=4_PSC Length=0.20951 Units=m
New Line.LINE2235 Bus1=2225 Bus2=2236 phases=3 Linecode=2c_.0225 Length=0.19228 Units=m
New Line.LINE2236 Bus1=2226 Bus2=2237 phases=3 Linecode=4c_.06 Length=1.0463 Units=m
New Line.LINE2237 Bus1=2227 Bus2=2238 phases=3 Linecode=2c_.0225 Length=6.1969 Units=m
New Line.LINE2238 Bus1=2228 Bus2=2239 phases=3 Linecode=2c_.007 Length=0.27049 Units=m
New Line.LINE2239 Bus1=2229 Bus2=2240 phases=3 Linecode=2c_.0225 Length=5.2959 Units=m
New Line.LINE2240 Bus1=2230 Bus2=2241 phases=3 Linecode=4c_.06 Length=11.1833 Units=m
New Line.LINE2241 Bus1=2231 Bus2=2242 phases=3 Linecode=4c_.5 Length=0.29165 Units=m
New Line.LINE2242 Bus1=2233 Bus2=2243 phases=3 Linecode=4c_.06 Length=0.21836 Units=m
New Line.LINE2243 Bus1=2234 Bus2=2244 phases=3 Linecode=2c_.0225 Length=2.4762 Units=m
New Line.LINE2244 Bus1=2234 Bus2=2245 phases=3 Linecode=4c_.06 Length=6.2937 Units=m
New Line.LINE2245 Bus1=2235 Bus2=2246 phases=3 Linecode=4_PSC Length=0.32758 Units=m
New Line.LINE2246 Bus1=2236 Bus2=2247 phases=3 Linecode=2c_.0225 Length=0.21197 Units=m
New Line.LINE2247 Bus1=2237 Bus2=2248 phases=3 Linecode=4c_.06 Length=0.73831 Units=m
New Line.LINE2248 Bus1=2238 Bus2=2249 phases=3 Linecode=2c_.0225 Length=0.37136 Units=m
New Line.LINE2249 Bus1=2239 Bus2=2250 phases=3 Linecode=2c_.007 Length=0.26417 Units=m
New Line.LINE2250 Bus1=2241 Bus2=2251 phases=3 Linecode=2c_.0225 Length=6.7186 Units=m
New Line.LINE2251 Bus1=2241 Bus2=2252 phases=3 Linecode=4c_.06 Length=4.2833 Units=m
New Line.LINE2252 Bus1=2242 Bus2=2253 phases=3 Linecode=4c_.5 Length=0.36513 Units=m
New Line.LINE2253 Bus1=2243 Bus2=2254 phases=3 Linecode=4c_.06 Length=0.29969 Units=m
New Line.LINE2254 Bus1=2244 Bus2=2255 phases=3 Linecode=2c_.0225 Length=0.22672 Units=m
New Line.LINE2255 Bus1=2246 Bus2=2256 phases=3 Linecode=4_PSC Length=1.3444 Units=m
New Line.LINE2256 Bus1=2247 Bus2=2257 phases=3 Linecode=2c_.0225 Length=0.21197 Units=m
New Line.LINE2257 Bus1=2248 Bus2=2258 phases=3 Linecode=4c_.06 Length=1.0723 Units=m
New Line.LINE2258 Bus1=2249 Bus2=2259 phases=3 Linecode=2c_.0225 Length=0.40266 Units=m
New Line.LINE2259 Bus1=2250 Bus2=2260 phases=3 Linecode=2c_.007 Length=0.1516 Units=m
New Line.LINE2260 Bus1=2251 Bus2=2261 phases=3 Linecode=2c_.0225 Length=1.136 Units=m
New Line.LINE2261 Bus1=2251 Bus2=2262 phases=3 Linecode=2c_.0225 Length=1.207 Units=m
New Line.LINE2262 Bus1=2252 Bus2=2263 phases=3 Linecode=4c_.06 Length=8.1431 Units=m
New Line.LINE2263 Bus1=2253 Bus2=2264 phases=3 Linecode=4c_.5 Length=0.43115 Units=m
New Line.LINE2264 Bus1=2254 Bus2=2265 phases=3 Linecode=4c_.06 Length=0.29955 Units=m
New Line.LINE2265 Bus1=2255 Bus2=2266 phases=3 Linecode=2c_.0225 Length=0.32487 Units=m
New Line.LINE2266 Bus1=2257 Bus2=2267 phases=3 Linecode=2c_.0225 Length=0.75412 Units=m
New Line.LINE2267 Bus1=2258 Bus2=2268 phases=3 Linecode=4c_.06 Length=0.78189 Units=m
New Line.LINE2268 Bus1=2259 Bus2=2269 phases=3 Linecode=2c_.0225 Length=0.46672 Units=m
New Line.LINE2269 Bus1=2260 Bus2=2270 phases=3 Linecode=2c_.007 Length=0.24444 Units=m
New Line.LINE2270 Bus1=2261 Bus2=2271 phases=3 Linecode=2c_.0225 Length=4.8291 Units=m
New Line.LINE2271 Bus1=2262 Bus2=2272 phases=3 Linecode=2c_.0225 Length=0.29 Units=m
New Line.LINE2272 Bus1=2263 Bus2=2273 phases=3 Linecode=2c_.0225 Length=8.2289 Units=m
New Line.LINE2273 Bus1=2263 Bus2=2274 phases=3 Linecode=4c_.06 Length=7.6317 Units=m
New Line.LINE2274 Bus1=2264 Bus2=2275 phases=3 Linecode=4c_.5 Length=0.63545 Units=m
New Line.LINE2275 Bus1=2265 Bus2=2276 phases=3 Linecode=4c_.06 Length=0.16085 Units=m
New Line.LINE2276 Bus1=2266 Bus2=2277 phases=3 Linecode=2c_.0225 Length=0.40594 Units=m
New Line.LINE2277 Bus1=2267 Bus2=2278 phases=3 Linecode=2c_.0225 Length=4.4991 Units=m
New Line.LINE2278 Bus1=2267 Bus2=2279 phases=3 Linecode=2c_.0225 Length=4.4991 Units=m
New Line.LINE2279 Bus1=2268 Bus2=2280 phases=3 Linecode=4c_.06 Length=0.85234 Units=m
New Line.LINE2280 Bus1=2269 Bus2=2281 phases=3 Linecode=2c_.0225 Length=2.4414 Units=m
New Line.LINE2281 Bus1=2270 Bus2=2282 phases=3 Linecode=2c_.007 Length=0.31208 Units=m
New Line.LINE2282 Bus1=2272 Bus2=2283 phases=3 Linecode=2c_.0225 Length=0.29099 Units=m
New Line.LINE2283 Bus1=2273 Bus2=2284 phases=3 Linecode=2c_.0225 Length=5.0187 Units=m
New Line.LINE2284 Bus1=2274 Bus2=2285 phases=3 Linecode=2c_.0225 Length=9.7001 Units=m
New Line.LINE2285 Bus1=2274 Bus2=2286 phases=3 Linecode=4c_.06 Length=6.2438 Units=m
New Line.LINE2286 Bus1=2275 Bus2=2287 phases=3 Linecode=4c_.5 Length=0.5602 Units=m
New Line.LINE2287 Bus1=2276 Bus2=2288 phases=3 Linecode=4c_.06 Length=0.21946 Units=m
New Line.LINE2288 Bus1=2277 Bus2=2289 phases=3 Linecode=2c_.0225 Length=1.2446 Units=m
New Line.LINE2289 Bus1=2280 Bus2=2290 phases=3 Linecode=4c_.06 Length=0.58992 Units=m
New Line.LINE2290 Bus1=2281 Bus2=2291 phases=3 Linecode=2c_.0225 Length=0.28618 Units=m
New Line.LINE2291 Bus1=2282 Bus2=2292 phases=3 Linecode=2c_.007 Length=1.1696 Units=m
New Line.LINE2292 Bus1=2283 Bus2=2293 phases=3 Linecode=2c_.0225 Length=0.14132 Units=m
New Line.LINE2293 Bus1=2285 Bus2=2294 phases=3 Linecode=2c_.0225 Length=0.31421 Units=m
New Line.LINE2294 Bus1=2286 Bus2=2295 phases=3 Linecode=4c_.06 Length=5.0736 Units=m
New Line.LINE2295 Bus1=2287 Bus2=2296 phases=3 Linecode=4c_.5 Length=0.64896 Units=m
New Line.LINE2296 Bus1=2288 Bus2=2297 phases=3 Linecode=4c_.06 Length=0.32796 Units=m
New Line.LINE2297 Bus1=2289 Bus2=2298 phases=3 Linecode=2c_.0225 Length=0.27461 Units=m
New Line.LINE2298 Bus1=2290 Bus2=2299 phases=3 Linecode=4c_.06 Length=0.71512 Units=m
New Line.LINE2299 Bus1=2291 Bus2=2300 phases=3 Linecode=2c_.0225 Length=0.2702 Units=m
New Line.LINE2300 Bus1=2293 Bus2=2301 phases=3 Linecode=2c_.0225 Length=0.13647 Units=m
New Line.LINE2301 Bus1=2294 Bus2=2302 phases=3 Linecode=2c_.0225 Length=0.28104 Units=m
New Line.LINE2302 Bus1=2295 Bus2=2303 phases=3 Linecode=4c_.06 Length=3.0506 Units=m
New Line.LINE2303 Bus1=2296 Bus2=2304 phases=3 Linecode=4c_.5 Length=0.3727 Units=m
New Line.LINE2304 Bus1=2297 Bus2=2305 phases=3 Linecode=4c_.06 Length=0.29557 Units=m
New Line.LINE2305 Bus1=2298 Bus2=2306 phases=3 Linecode=2c_.0225 Length=0.22638 Units=m
New Line.LINE2306 Bus1=2299 Bus2=2307 phases=3 Linecode=4c_.06 Length=1.05 Units=m
New Line.LINE2307 Bus1=2300 Bus2=2308 phases=3 Linecode=2c_.0225 Length=0.22062 Units=m
New Line.LINE2308 Bus1=2301 Bus2=2309 phases=3 Linecode=2c_.0225 Length=0.80025 Units=m
New Line.LINE2309 Bus1=2302 Bus2=2310 phases=3 Linecode=2c_.0225 Length=0.19873 Units=m
New Line.LINE2310 Bus1=2303 Bus2=2311 phases=3 Linecode=4c_.06 Length=1.1717 Units=m
New Line.LINE2311 Bus1=2304 Bus2=2312 phases=3 Linecode=4c_.5 Length=0.45283 Units=m
New Line.LINE2312 Bus1=2305 Bus2=2313 phases=3 Linecode=4c_.06 Length=0.34972 Units=m
New Line.LINE2313 Bus1=2306 Bus2=2314 phases=3 Linecode=2c_.0225 Length=0.34976 Units=m
New Line.LINE2314 Bus1=2307 Bus2=2315 phases=3 Linecode=4c_.06 Length=0.8433 Units=m
New Line.LINE2315 Bus1=2308 Bus2=2316 phases=3 Linecode=2c_.0225 Length=0.14001 Units=m
New Line.LINE2316 Bus1=2309 Bus2=2317 phases=3 Linecode=2c_.0225 Length=4.8023 Units=m
New Line.LINE2317 Bus1=2310 Bus2=2318 phases=3 Linecode=2c_.0225 Length=0.24537 Units=m
New Line.LINE2318 Bus1=2311 Bus2=2319 phases=3 Linecode=2c_.04 Length=7.9319 Units=m
New Line.LINE2319 Bus1=2311 Bus2=2320 phases=3 Linecode=4c_.06 Length=0.86868 Units=m
New Line.LINE2320 Bus1=2312 Bus2=2321 phases=3 Linecode=4c_.5 Length=0.41448 Units=m
New Line.LINE2321 Bus1=2314 Bus2=2322 phases=3 Linecode=2c_.0225 Length=3.8953 Units=m
New Line.LINE2322 Bus1=2315 Bus2=2323 phases=3 Linecode=4c_.06 Length=0.86875 Units=m
New Line.LINE2323 Bus1=2316 Bus2=2324 phases=3 Linecode=2c_.0225 Length=0.49368 Units=m
New Line.LINE2324 Bus1=2318 Bus2=2325 phases=3 Linecode=2c_.0225 Length=0.23314 Units=m
New Line.LINE2325 Bus1=2319 Bus2=2326 phases=3 Linecode=2c_.04 Length=5.3493 Units=m
New Line.LINE2326 Bus1=2319 Bus2=2327 phases=3 Linecode=2c_.04 Length=5.3493 Units=m
New Line.LINE2327 Bus1=2320 Bus2=2328 phases=3 Linecode=4c_.06 Length=0.67887 Units=m
New Line.LINE2328 Bus1=2321 Bus2=2329 phases=3 Linecode=4c_.5 Length=0.56602 Units=m
New Line.LINE2329 Bus1=2322 Bus2=2330 phases=3 Linecode=2c_.0225 Length=0.15988 Units=m
New Line.LINE2330 Bus1=2323 Bus2=2331 phases=3 Linecode=4c_.06 Length=0.8244 Units=m
New Line.LINE2331 Bus1=2324 Bus2=2332 phases=3 Linecode=2c_.0225 Length=5.7252 Units=m
New Line.LINE2332 Bus1=2325 Bus2=2333 phases=3 Linecode=2c_.0225 Length=0.19393 Units=m
New Line.LINE2333 Bus1=2328 Bus2=2334 phases=3 Linecode=4c_.06 Length=1.3548 Units=m
New Line.LINE2334 Bus1=2329 Bus2=2335 phases=3 Linecode=4c_.5 Length=2.1841 Units=m
New Line.LINE2335 Bus1=2330 Bus2=2336 phases=3 Linecode=2c_.0225 Length=0.21537 Units=m
New Line.LINE2336 Bus1=2331 Bus2=2337 phases=3 Linecode=4c_.06 Length=6.1793 Units=m
New Line.LINE2337 Bus1=2331 Bus2=2338 phases=3 Linecode=4c_.06 Length=1.019 Units=m
New Line.LINE2338 Bus1=2333 Bus2=2339 phases=3 Linecode=2c_.0225 Length=0.36749 Units=m
New Line.LINE2339 Bus1=2334 Bus2=2340 phases=3 Linecode=4c_.06 Length=0.8471 Units=m
New Line.LINE2340 Bus1=2335 Bus2=2341 phases=3 Linecode=4c_.5 Length=12.7317 Units=m
New Line.LINE2341 Bus1=2336 Bus2=2342 phases=3 Linecode=2c_.0225 Length=0.18832 Units=m
New Line.LINE2342 Bus1=2337 Bus2=2343 phases=3 Linecode=4c_.06 Length=0.53828 Units=m
New Line.LINE2343 Bus1=2338 Bus2=2344 phases=3 Linecode=4c_.06 Length=7.4447 Units=m
New Line.LINE2344 Bus1=2339 Bus2=2345 phases=3 Linecode=2c_.0225 Length=2.66 Units=m
New Line.LINE2345 Bus1=2340 Bus2=2346 phases=3 Linecode=4c_.06 Length=1.234 Units=m
New Line.LINE2346 Bus1=2341 Bus2=2347 phases=3 Linecode=4c_.5 Length=0.43233 Units=m
New Line.LINE2347 Bus1=2342 Bus2=2348 phases=3 Linecode=2c_.0225 Length=0.21465 Units=m
New Line.LINE2348 Bus1=2343 Bus2=2349 phases=3 Linecode=4c_.06 Length=0.45839 Units=m
New Line.LINE2349 Bus1=2344 Bus2=2350 phases=3 Linecode=2c_.0225 Length=6.8184 Units=m
New Line.LINE2350 Bus1=2344 Bus2=2351 phases=3 Linecode=4c_.06 Length=13.1234 Units=m
New Line.LINE2351 Bus1=2346 Bus2=2352 phases=3 Linecode=4c_.06 Length=0.77824 Units=m