New Line.LINE175_1 Bus1=175_1 Bus2=175_2 phases=3 Linecode=3c_300_SAC_XC Length=0.79437 Units=m
New Line.LINE175_2 Bus1=175_2 Bus2=175_3 phases=3 Linecode=3c_300_SAC_XC Length=0.123 Units=m
New Line.LINE175_3 Bus1=175_3 Bus2=175_4 phases=3 Linecode=3c_300_SAC_XC Length=0.12315 Units=m
New Line.LINE175_4 Bus1=175_4 Bus2=175_5 phases=3 Linecode=3c_300_SAC_XC Length=0.12332 Units=m
New Line.LINE175_5 Bus1=175_5 Bus2=175_6 phases=3 Linecode=3c_300_SAC_XC Length=0.12238 Units=m
New Line.LINE175_6 Bus1=175_6 Bus2=175_7 phases=3 Linecode=3c_300_SAC_XC Length=0.12355 Units=m
New Line.LINE175_7 Bus1=175_7 Bus2=175_8 phases=3 Linecode=3c_300_SAC_XC Length=0.12215 Units=m
New Line.LINE175_8 Bus1=175_8 Bus2=175_9 phases=3 Linecode=3c_300_SAC_XC Length=0.12355 Units=m
New Line.LINE175_9 Bus1=175_9 Bus2=175_10 phases=3 Linecode=3c_300_SAC_XC Length=0.12355 Units=m
New Line.LINE175_10 Bus1=175_10 Bus2=175_11 phases=3 Linecode=3c_300_SAC_XC Length=2.189 Units=m
New Line.LINE175_11 Bus1=175_11 Bus2=175_12 phases=3 Linecode=3c_300_SAC_XC Length=1.0177 Units=m
New Line.LINE175_12 Bus1=175_12 Bus2=175_13 phases=3 Linecode=3c_300_SAC_XC Length=0.093038 Units=m
New Line.LINE175_13 Bus1=175_13 Bus2=175_14 phases=3 Linecode=3c_300_SAC_XC Length=0.092655 Units=m
New Line.LINE175_14 Bus1=175_14 Bus2=175_15 phases=3 Linecode=3c_300_SAC_XC Length=0.091935 Units=m
New Line.LINE175_15 Bus1=175_15 Bus2=175_16 phases=3 Linecode=3c_300_SAC_XC Length=0.093006 Units=m
New Line.LINE175_16 Bus1=175_16 Bus2=175_17 phases=3 Linecode=3c_300_SAC_XC Length=0.092573 Units=m
New Line.LINE175_17 Bus1=175_17 Bus2=175_18 phases=3 Linecode=3c_300_SAC_XC Length=0.093301 Units=m
New Line.LINE175_18 Bus1=175_18 Bus2=175_19 phases=3 Linecode=3c_300_SAC_XC Length=3.652 Units=m
New Line.LINE175_19 Bus1=175_19 Bus2=175_20 phases=3 Linecode=3c_300_SAC_XC Length=0.23559 Units=m
New Line.LINE175_20 Bus1=175_20 Bus2=175_21 phases=3 Linecode=3c_300_SAC_XC Length=0.23526 Units=m
New Line.LINE175_21 Bus1=175_21 Bus2=175_22 phases=3 Linecode=3c_300_SAC_XC Length=0.235 Units=m
New Line.LINE175_22 Bus1=175_22 Bus2=175_23 phases=3 Linecode=3c_300_SAC_XC Length=0.23483 Units=m
New Line.LINE175_23 Bus1=175_23 Bus2=175_24 phases=3 Linecode=3c_300_SAC_XC Length=0.23548 Units=m
New Line.LINE175_24 Bus1=175_24 Bus2=175_25 phases=3 Linecode=3c_300_SAC_XC Length=0.36405 Units=m
New Line.LINE175_25 Bus1=175_25 Bus2=175_26 phases=3 Linecode=3c_300_SAC_XC Length=1.0081 Units=m
New Line.LINE175_26 Bus1=175_26 Bus2=175_27 phases=3 Linecode=3c_300_SAC_XC Length=0.1367 Units=m
New Line.LINE175_27 Bus1=175_27 Bus2=175_28 phases=3 Linecode=3c_300_SAC_XC Length=29.8356 Units=m
New Line.LINE175_28 Bus1=175_28 Bus2=175_29 phases=3 Linecode=3c_300_SAC_XC Length=0.74403 Units=m
New Line.LINE175_29 Bus1=175_29 Bus2=175_30 phases=3 Linecode=3c_300_SAC_XC Length=0.042953 Units=m
New Line.LINE175_30 Bus1=175_30 Bus2=175_31 phases=3 Linecode=3c_300_SAC_XC Length=0.041617 Units=m
New Line.LINE175_31 Bus1=175_31 Bus2=175_32 phases=3 Linecode=3c_300_SAC_XC Length=0.043139 Units=m
New Line.LINE175_32 Bus1=175_32 Bus2=175_33 phases=3 Linecode=3c_300_SAC_XC Length=0.04134 Units=m
New Line.LINE175_33 Bus1=175_33 Bus2=175_34 phases=3 Linecode=3c_300_SAC_XC Length=0.043081 Units=m
New Line.LINE175_34 Bus1=175_34 Bus2=175_35 phases=3 Linecode=3c_300_SAC_XC Length=0.041593 Units=m
New Line.LINE175_35 Bus1=175_35 Bus2=175_36 phases=3 Linecode=3c_300_SAC_XC Length=0.042013 Units=m
New Line.LINE175_36 Bus1=175_36 Bus2=175_37 phases=3 Linecode=3c_300_SAC_XC Length=0.042753 Units=m
New Line.LINE175_37 Bus1=175_37 Bus2=175_38 phases=3 Linecode=3c_300_SAC_XC Length=3.1574 Units=m
New Line.LINE175_38 Bus1=175_38 Bus2=175_39 phases=3 Linecode=4c_.25 Length=1.2503 Units=m
New Line.LINE175_39 Bus1=175_39 Bus2=175_40 phases=3 Linecode=3c_300_SAC_XC Length=0.91234 Units=m
New Line.LINE175_40 Bus1=175_39 Bus2=175_41 phases=3 Linecode=4c_.25 Length=10.8805 Units=m
New Line.LINE175_41 Bus1=175_40 Bus2=175_42 phases=3 Linecode=3c_300_SAC_XC Length=0.13809 Units=m
New Line.LINE175_44 Bus1=175_42 Bus2=175_45 phases=3 Linecode=3c_300_SAC_XC Length=0.25294 Units=m
New Line.LINE175_48 Bus1=175_45 Bus2=175_49 phases=3 Linecode=4c_.25 Length=5.8542 Units=m
New Line.LINE175_50 Bus1=175_47 Bus2=175_51 phases=3 Linecode=2c_.04 Length=12.2012 Units=m
New Line.LINE175_52 Bus1=175_49 Bus2=175_53 phases=3 Linecode=4c_.25 Length=17.0783 Units=m
New Line.LINE175_58 Bus1=175_53 Bus2=175_59 phases=3 Linecode=4c_.25 Length=27.1081 Units=m
New Line.LINE175_64 Bus1=175_59 Bus2=175_65 phases=3 Linecode=4c_.25 Length=7.9955 Units=m
New Line.LINE175_70 Bus1=175_65 Bus2=175_71 phases=3 Linecode=4c_.25 Length=20.299 Units=m
New Line.LINE175_76 Bus1=175_71 Bus2=175_77 phases=3 Linecode=4c_.25 Length=24.4256 Units=m
New Line.LINE175_77 Bus1=175_72 Bus2=175_78 phases=3 Linecode=2c_.04 Length=4.538 Units=m
New Line.LINE175_84 Bus1=175_77 Bus2=175_85 phases=3 Linecode=4c_.25 Length=3.1516 Units=m
New Line.LINE175_92 Bus1=175_85 Bus2=175_93 phases=3 Linecode=4c_.25 Length=0.366 Units=m
New Line.LINE175_95 Bus1=175_89 Bus2=175_96 phases=3 Linecode=2c_.04 Length=6.8722 Units=m
New Line.LINE175_101 Bus1=175_93 Bus2=175_102 phases=3 Linecode=4c_.25 Length=0.26829 Units=m
New Line.LINE175_109 Bus1=175_102 Bus2=175_110 phases=3 Linecode=4c_.25 Length=0.19163 Units=m
New Line.LINE175_111 Bus1=175_104 Bus2=175_112 phases=3 Linecode=2c_.04 Length=5.5946 Units=m
New Line.LINE175_117 Bus1=175_108 Bus2=175_118 phases=3 Linecode=4c_.25 Length=4.9378 Units=m
New Line.LINE175_119 Bus1=175_110 Bus2=175_120 phases=3 Linecode=4c_.25 Length=8.9153 Units=m
New Line.LINE175_126 Bus1=175_118 Bus2=175_127 phases=3 Linecode=2c_.04 Length=7.5904 Units=m
New Line.LINE175_127 Bus1=175_118 Bus2=175_128 phases=3 Linecode=4c_.25 Length=1.772 Units=m
New Line.LINE175_129 Bus1=175_120 Bus2=175_130 phases=3 Linecode=4c_.25 Length=7.0668 Units=m
New Line.LINE175_138 Bus1=175_128 Bus2=175_139 phases=3 Linecode=25_SAC_XC Length=4.6884 Units=m
New Line.LINE175_141 Bus1=175_130 Bus2=175_142 phases=3 Linecode=4c_.25 Length=9.2881 Units=m
New Line.LINE175_152 Bus1=175_142 Bus2=175_153 phases=3 Linecode=4c_.25 Length=18.6396 Units=m
New Line.LINE175_158 Bus1=175_147 Bus2=175_159 phases=3 Linecode=2c_.04 Length=4.8641 Units=m
New Line.LINE175_166 Bus1=175_153 Bus2=175_167 phases=3 Linecode=4c_.25 Length=18.2891 Units=m
New Line.LINE175_181 Bus1=175_167 Bus2=175_182 phases=3 Linecode=4c_.25 Length=10.0969 Units=m
New Line.LINE175_195 Bus1=175_181 Bus2=175_196 phases=3 Linecode=2c_.04 Length=5.1097 Units=m
New Line.LINE175_198 Bus1=175_182 Bus2=175_199 phases=3 Linecode=2c_.04 Length=4.3768 Units=m
New Line.LINE175_207 Bus1=175_191 Bus2=175_208 phases=3 Linecode=2c_.04 Length=5.5803 Units=m
New Line.LINE175_229 Bus1=175_210 Bus2=175_230 phases=3 Linecode=2c_.04 Length=5.9129 Units=m
New Line.LINE175_270 Bus1=175_250 Bus2=175_271 phases=3 Linecode=4c_.12 Length=15.6927 Units=m
New Line.LINE175_275 Bus1=175_254 Bus2=175_276 phases=3 Linecode=2c_.04 Length=7.3711 Units=m
New Line.LINE175_287 Bus1=175_266 Bus2=175_288 phases=3 Linecode=2c_.04 Length=6.9097 Units=m
New Line.LINE175_294 Bus1=175_271 Bus2=175_295 phases=3 Linecode=4c_.12 Length=16.5942 Units=m
New Line.LINE175_360 Bus1=175_336 Bus2=175_361 phases=3 Linecode=2c_.04 Length=4.844 Units=m
New Line.LINE175_381 Bus1=175_354 Bus2=175_382 phases=3 Linecode=2c_.04 Length=4.8891 Units=m
New Line.LINE175_383 Bus1=175_355 Bus2=175_384 phases=3 Linecode=2c_.04 Length=5.8829 Units=m
New Line.LINE175_390 Bus1=175_360 Bus2=175_391 phases=3 Linecode=2c_.04 Length=4.6643 Units=m
New Line.LINE175_395 Bus1=175_365 Bus2=175_396 phases=3 Linecode=2c_.04 Length=6.0097 Units=m
New Line.LINE175_400 Bus1=175_369 Bus2=175_401 phases=3 Linecode=2c_.04 Length=3.0779 Units=m
New Line.LINE175_410 Bus1=175_378 Bus2=175_411 phases=3 Linecode=4c_.25 Length=21.8352 Units=m
New Line.LINE175_420 Bus1=175_388 Bus2=175_421 phases=3 Linecode=2c_.04 Length=4.2977 Units=m
New Line.LINE175_430 Bus1=175_403 Bus2=175_431 phases=3 Linecode=2c_.04 Length=1.8331 Units=m
New Line.LINE175_439 Bus1=175_411 Bus2=175_440 phases=3 Linecode=2c_.04 Length=8.3802 Units=m
New Line.LINE175_464 Bus1=175_436 Bus2=175_465 phases=3 Linecode=2c_.04 Length=5.3738 Units=m
New Line.LINE175_474 Bus1=175_443 Bus2=175_475 phases=3 Linecode=2c_.04 Length=5.2554 Units=m
New Line.LINE175_526 Bus1=175_495 Bus2=175_527 phases=3 Linecode=2c_.04 Length=3.7675 Units=m
New Line.LINE175_541 Bus1=175_509 Bus2=175_542 phases=3 Linecode=2c_.04 Length=6.0055 Units=m
New Line.LINE175_617 Bus1=175_585 Bus2=175_618 phases=3 Linecode=4c_.25 Length=0.72168 Units=m
New Line.LINE175_628 Bus1=175_596 Bus2=175_629 phases=3 Linecode=4c_.12 Length=5.4361 Units=m
New Line.LINE175_650 Bus1=175_614 Bus2=175_651 phases=3 Linecode=3c_185_SAC_XC Length=2.358 Units=m
New Line.LINE175_653 Bus1=175_618 Bus2=175_654 phases=3 Linecode=4c_.25 Length=7.1219 Units=m
New Line.LINE175_654 Bus1=175_619 Bus2=175_655 phases=3 Linecode=2c_.04 Length=3.8275 Units=m
New Line.LINE175_656 Bus1=175_620 Bus2=175_657 phases=3 Linecode=2c_.04 Length=3.4596 Units=m
New Line.LINE175_664 Bus1=175_629 Bus2=175_665 phases=3 Linecode=2c_.0225 Length=4.5698 Units=m
New Line.LINE175_671 Bus1=175_636 Bus2=175_672 phases=3 Linecode=2c_.04 Length=4.7343 Units=m
New Line.LINE175_691 Bus1=175_654 Bus2=175_692 phases=3 Linecode=4c_.25 Length=9.6338 Units=m
New Line.LINE175_695 Bus1=175_660 Bus2=175_696 phases=3 Linecode=2c_.04 Length=4.1868 Units=m
New Line.LINE175_701 Bus1=175_665 Bus2=175_702 phases=3 Linecode=2c_.0225 Length=0.95239 Units=m
New Line.LINE175_726 Bus1=175_692 Bus2=175_727 phases=3 Linecode=4c_.25 Length=1.2702 Units=m
New Line.LINE175_735 Bus1=175_702 Bus2=175_736 phases=3 Linecode=2c_.0225 Length=0.56051 Units=m
New Line.LINE175_759 Bus1=175_727 Bus2=175_760 phases=3 Linecode=4c_.25 Length=4.4682 Units=m
New Line.LINE175_768 Bus1=175_736 Bus2=175_769 phases=3 Linecode=2c_.0225 Length=0.49578 Units=m
New Line.LINE175_790 Bus1=175_760 Bus2=175_791 phases=3 Linecode=4c_.06 Length=8.2035 Units=m
New Line.LINE175_798 Bus1=175_769 Bus2=175_799 phases=3 Linecode=2c_.0225 Length=0.45951 Units=m
New Line.LINE175_820 Bus1=175_791 Bus2=175_821 phases=3 Linecode=4c_.06 Length=9.9413 Units=m
New Line.LINE175_824 Bus1=175_795 Bus2=175_825 phases=3 Linecode=2c_.04 Length=4.4924 Units=m
New Line.LINE175_828 Bus1=175_799 Bus2=175_829 phases=3 Linecode=2c_.0225 Length=0.49317 Units=m
New Line.LINE175_848 Bus1=175_821 Bus2=175_849 phases=3 Linecode=4c_.06 Length=7.6603 Units=m
New Line.LINE175_855 Bus1=175_829 Bus2=175_856 phases=3 Linecode=2c_.0225 Length=4.4694 Units=m
New Line.LINE175_873 Bus1=175_849 Bus2=175_874 phases=3 Linecode=4c_.06 Length=6.6602 Units=m
New Line.LINE175_879 Bus1=175_856 Bus2=175_880 phases=3 Linecode=2c_.0225 Length=6.8041 Units=m
New Line.LINE175_896 Bus1=175_874 Bus2=175_897 phases=3 Linecode=.04_LTC Length=4.884 Units=m
New Line.LINE175_902 Bus1=175_880 Bus2=175_903 phases=3 Linecode=2c_.0225 Length=0.18263 Units=m
New Line.LINE175_924 Bus1=175_900 Bus2=175_925 phases=3 Linecode=2c_.04 Length=4.5433 Units=m
New Line.LINE175_928 Bus1=175_903 Bus2=175_929 phases=3 Linecode=2c_.0225 Length=0.19642 Units=m
New Line.LINE175_949 Bus1=175_924 Bus2=175_950 phases=3 Linecode=2c_.04 Length=3.9736 Units=m
New Line.LINE175_954 Bus1=175_929 Bus2=175_955 phases=3 Linecode=2c_.0225 Length=0.24586 Units=m
New Line.LINE175_978 Bus1=175_954 Bus2=175_979 phases=3 Linecode=2c_.04 Length=5.6149 Units=m
New Line.LINE175_980 Bus1=175_955 Bus2=175_981 phases=3 Linecode=2c_.0225 Length=0.53043 Units=m
New Line.LINE175_1003 Bus1=175_981 Bus2=175_1004 phases=3 Linecode=2c_.0225 Length=5.1612 Units=m
New Line.LINE175_1086 Bus1=175_1068 Bus2=175_1087 phases=3 Linecode=2c_.04 Length=6.3374 Units=m
New Line.LINE175_1099 Bus1=175_1081 Bus2=175_1100 phases=3 Linecode=4c_.06 Length=0.69623 Units=m
New Line.LINE175_1100 Bus1=175_1081 Bus2=175_1101 phases=3 Linecode=2c_.04 Length=4.0857 Units=m
New Line.LINE175_1119 Bus1=175_1100 Bus2=175_1120 phases=3 Linecode=4c_.6 Length=1.9738 Units=m
New Line.LINE175_1138 Bus1=175_1120 Bus2=175_1139 phases=3 Linecode=4c_.6 Length=1.3877 Units=m
New Line.LINE175_1143 Bus1=175_1126 Bus2=175_1144 phases=3 Linecode=2c_.04 Length=4.5201 Units=m
New Line.LINE175_1145 Bus1=175_1127 Bus2=175_1146 phases=3 Linecode=2c_.04 Length=4.1388 Units=m
New Line.LINE175_1159 Bus1=175_1139 Bus2=175_1160 phases=3 Linecode=4c_.6 Length=1.2415 Units=m
New Line.LINE175_1178 Bus1=175_1160 Bus2=175_1179 phases=3 Linecode=4c_.6 Length=13.2571 Units=m
New Line.LINE175_1182 Bus1=175_1164 Bus2=175_1183 phases=3 Linecode=.04_LTC Length=3.6508 Units=m
New Line.LINE175_1196 Bus1=175_1179 Bus2=175_1197 phases=3 Linecode=4c_.6 Length=10.0561 Units=m
New Line.LINE175_1210 Bus1=175_1195 Bus2=175_1211 phases=3 Linecode=3c_95_SAC_XC Length=5.6944 Units=m
New Line.LINE175_1213 Bus1=175_1197 Bus2=175_1214 phases=3 Linecode=4c_.6 Length=22.0608 Units=m
New Line.LINE175_1217 Bus1=175_1201 Bus2=175_1218 phases=3 Linecode=.04_LTC Length=5.6446 Units=m
New Line.LINE175_1229 Bus1=175_1211 Bus2=175_1230 phases=3 Linecode=3c_95_SAC_XC Length=4.0158 Units=m
New Line.LINE175_1232 Bus1=175_1214 Bus2=175_1233 phases=3 Linecode=2c_.04 Length=5.5568 Units=m
New Line.LINE175_1247 Bus1=175_1230 Bus2=175_1248 phases=3 Linecode=3c_95_SAC_XC Length=3.903 Units=m
New Line.LINE175_1253 Bus1=175_1235 Bus2=175_1254 phases=3 Linecode=2c_.04 Length=4.7978 Units=m
New Line.LINE175_1254 Bus1=175_1235 Bus2=175_1255 phases=3 Linecode=2c_.04 Length=5.3641 Units=m
New Line.LINE175_1255 Bus1=175_1236 Bus2=175_1256 phases=3 Linecode=2c_.04 Length=4.0648 Units=m
New Line.LINE175_1256 Bus1=175_1236 Bus2=175_1257 phases=3 Linecode=2c_.04 Length=5.8221 Units=m
New Line.LINE175_1275 Bus1=175_1255 Bus2=175_1276 phases=3 Linecode=2c_.04 Length=5.031 Units=m
New Line.LINE175_1277 Bus1=175_1257 Bus2=175_1278 phases=3 Linecode=2c_.04 Length=4.9748 Units=m
New Line.LINE175_1300 Bus1=175_1280 Bus2=175_1301 phases=3 Linecode=.04_LTC Length=4.5175 Units=m
New Line.LINE175_1366 Bus1=175_1344 Bus2=175_1367 phases=3 Linecode=2c_.04 Length=5.763 Units=m
New Line.LINE175_1376 Bus1=175_1353 Bus2=175_1377 phases=3 Linecode=3c_95_SAC_XC Length=6.7261 Units=m
New Line.LINE175_1400 Bus1=175_1377 Bus2=175_1401 phases=3 Linecode=3c_95_SAC_XC Length=2.0068 Units=m
New Line.LINE175_1408 Bus1=175_1384 Bus2=175_1409 phases=3 Linecode=3c_95_SAC_XC Length=0.36662 Units=m
New Line.LINE175_1428 Bus1=175_1401 Bus2=175_1429 phases=3 Linecode=35_SAC_PC Length=0.2305 Units=m
New Line.LINE175_1435 Bus1=175_1409 Bus2=175_1436 phases=3 Linecode=3c_95_SAC_XC Length=0.2435 Units=m
New Line.LINE175_1449 Bus1=175_1423 Bus2=175_1450 phases=3 Linecode=.04_LTC Length=3.4203 Units=m
New Line.LINE175_1454 Bus1=175_1429 Bus2=175_1455 phases=3 Linecode=35_SAC_PC Length=0.32475 Units=m
New Line.LINE175_1461 Bus1=175_1436 Bus2=175_1462 phases=3 Linecode=3c_95_SAC_XC Length=0.30936 Units=m
New Line.LINE175_1479 Bus1=175_1455 Bus2=175_1480 phases=3 Linecode=35_SAC_PC Length=0.40983 Units=m
New Line.LINE175_1484 Bus1=175_1462 Bus2=175_1485 phases=3 Linecode=3c_95_SAC_XC Length=0.20319 Units=m
New Line.LINE175_1493 Bus1=175_1469 Bus2=175_1494 phases=3 Linecode=3c_185_SAC_XC Length=4.3065 Units=m
New Line.LINE175_1501 Bus1=175_1480 Bus2=175_1502 phases=3 Linecode=35_SAC_PC Length=0.84697 Units=m
New Line.LINE175_1505 Bus1=175_1485 Bus2=175_1506 phases=3 Linecode=3c_95_SAC_XC Length=0.99199 Units=m
New Line.LINE175_1515 Bus1=175_1494 Bus2=175_1516 phases=3 Linecode=3c_185_SAC_XC Length=4.2019 Units=m
New Line.LINE175_1516 Bus1=175_1495 Bus2=175_1517 phases=3 Linecode=.04_XSC Length=3.8532 Units=m
New Line.LINE175_1525 Bus1=175_1502 Bus2=175_1526 phases=3 Linecode=35_SAC_PC Length=0.13185 Units=m
New Line.LINE175_1528 Bus1=175_1506 Bus2=175_1529 phases=3 Linecode=3c_95_SAC_XC Length=0.80871 Units=m
New Line.LINE175_1547 Bus1=175_1526 Bus2=175_1548 phases=3 Linecode=35_SAC_PC Length=0.20394 Units=m
New Line.LINE175_1550 Bus1=175_1529 Bus2=175_1551 phases=3 Linecode=3c_95_SAC_XC Length=1.2912 Units=m
New Line.LINE175_1568 Bus1=175_1548 Bus2=175_1569 phases=3 Linecode=35_SAC_PC Length=0.80411 Units=m
New Line.LINE175_1571 Bus1=175_1551 Bus2=175_1572 phases=3 Linecode=3c_95_SAC_XC Length=4.1074 Units=m
New Line.LINE175_1582 Bus1=175_1561 Bus2=175_1583 phases=3 Linecode=3c_185_SAC_XC Length=8.5369 Units=m
New Line.LINE175_1591 Bus1=175_1569 Bus2=175_1592 phases=3 Linecode=35_SAC_PC Length=2.0687 Units=m
New Line.LINE175_1594 Bus1=175_1572 Bus2=175_1595 phases=3 Linecode=3c_95_SAC_XC Length=0.4202 Units=m
New Line.LINE175_1617 Bus1=175_1592 Bus2=175_1618 phases=3 Linecode=35_SAC_PC Length=6.8892 Units=m
New Line.LINE175_1619 Bus1=175_1594 Bus2=175_1620 phases=3 Linecode=35_SAC_PC Length=5.1875 Units=m
New Line.LINE175_1620 Bus1=175_1594 Bus2=175_1621 phases=3 Linecode=35_SAC_PC Length=3.2891 Units=m
New Line.LINE175_1621 Bus1=175_1595 Bus2=175_1622 phases=3 Linecode=3c_95_SAC_XC Length=0.30893 Units=m
New Line.LINE175_1636 Bus1=175_1610 Bus2=175_1637 phases=3 Linecode=2c_.04 Length=5.0182 Units=m
New Line.LINE175_1645 Bus1=175_1618 Bus2=175_1646 phases=3 Linecode=35_SAC_PC Length=0.40426 Units=m
New Line.LINE175_1647 Bus1=175_1622 Bus2=175_1648 phases=3 Linecode=3c_95_SAC_XC Length=0.28685 Units=m
New Line.LINE175_1668 Bus1=175_1646 Bus2=175_1669 phases=3 Linecode=35_SAC_PC Length=4.6701 Units=m
New Line.LINE175_1670 Bus1=175_1648 Bus2=175_1671 phases=3 Linecode=3c_95_SAC_XC Length=0.46952 Units=m
New Line.LINE175_1692 Bus1=175_1671 Bus2=175_1693 phases=3 Linecode=3c_95_SAC_XC Length=0.40418 Units=m
New Line.LINE175_1697 Bus1=175_1675 Bus2=175_1698 phases=3 Linecode=3c_95_SAC_XC Length=2.5004 Units=m
New Line.LINE175_1710 Bus1=175_1693 Bus2=175_1711 phases=3 Linecode=25_SAC_XC Length=5.2142 Units=m
New Line.LINE175_1722 Bus1=175_1702 Bus2=175_1723 phases=3 Linecode=3c_185_SAC_XC Length=0.83657 Units=m
New Line.LINE175_1731 Bus1=175_1711 Bus2=175_1732 phases=3 Linecode=25_SAC_XC Length=0.1636 Units=m
New Line.LINE175_1743 Bus1=175_1723 Bus2=175_1744 phases=3 Linecode=3c_185_SAC_XC Length=1.399 Units=m
New Line.LINE175_1753 Bus1=175_1732 Bus2=175_1754 phases=3 Linecode=25_SAC_XC Length=0.26792 Units=m
New Line.LINE175_1762 Bus1=175_1741 Bus2=175_1763 phases=3 Linecode=3c_95_SAC_XC Length=6.2107 Units=m
New Line.LINE175_1763 Bus1=175_1744 Bus2=175_1764 phases=3 Linecode=3c_185_SAC_XC Length=1.3615 Units=m
New Line.LINE175_1773 Bus1=175_1754 Bus2=175_1774 phases=3 Linecode=25_SAC_XC Length=0.31427 Units=m
New Line.LINE175_1785 Bus1=175_1764 Bus2=175_1786 phases=3 Linecode=3c_185_SAC_XC Length=1.2713 Units=m
New Line.LINE175_1793 Bus1=175_1774 Bus2=175_1794 phases=3 Linecode=25_SAC_XC Length=0.12105 Units=m
New Line.LINE175_1805 Bus1=175_1786 Bus2=175_1806 phases=3 Linecode=3c_185_SAC_XC Length=1.2761 Units=m
New Line.LINE175_1813 Bus1=175_1794 Bus2=175_1814 phases=3 Linecode=25_SAC_XC Length=0.18436 Units=m
New Line.LINE175_1826 Bus1=175_1806 Bus2=175_1827 phases=3 Linecode=3c_185_SAC_XC Length=1.4478 Units=m
New Line.LINE175_1834 Bus1=175_1814 Bus2=175_1835 phases=3 Linecode=25_SAC_XC Length=5.8966 Units=m
New Line.LINE175_1847 Bus1=175_1827 Bus2=175_1848 phases=3 Linecode=3c_185_SAC_XC Length=1.3361 Units=m
New Line.LINE175_1867 Bus1=175_1848 Bus2=175_1868 phases=3 Linecode=3c_185_SAC_XC Length=1.2888 Units=m
New Line.LINE175_1872 Bus1=175_1853 Bus2=175_1873 phases=3 Linecode=3c_95_SAC_XC Length=1.7996 Units=m
New Line.LINE175_1886 Bus1=175_1868 Bus2=175_1887 phases=3 Linecode=3c_185_SAC_XC Length=0.87987 Units=m
New Line.LINE175_1895 Bus1=175_1876 Bus2=175_1896 phases=3 Linecode=25_SAC_XC Length=7.8469 Units=m
New Line.LINE175_1905 Bus1=175_1887 Bus2=175_1906 phases=3 Linecode=3c_185_SAC_XC Length=1.0689 Units=m
New Line.LINE175_1926 Bus1=175_1906 Bus2=175_1927 phases=3 Linecode=3c_185_SAC_XC Length=0.63287 Units=m
New Line.LINE175_1930 Bus1=175_1910 Bus2=175_1931 phases=3 Linecode=3c_95_SAC_XC Length=3.4303 Units=m
New Line.LINE175_1947 Bus1=175_1927 Bus2=175_1948 phases=3 Linecode=3c_95_SAC_XC Length=0.45979 Units=m
New Line.LINE175_1968 Bus1=175_1948 Bus2=175_1969 phases=3 Linecode=3c_95_SAC_XC Length=0.60849 Units=m
New Line.LINE175_1988 Bus1=175_1969 Bus2=175_1989 phases=3 Linecode=3c_95_SAC_XC Length=0.47057 Units=m
New Line.LINE175_1992 Bus1=175_1973 Bus2=175_1993 phases=3 Linecode=3c_95_SAC_XC Length=2.9214 Units=m
New Line.LINE175_2008 Bus1=175_1989 Bus2=175_2009 phases=3 Linecode=3c_95_SAC_XC Length=0.24652 Units=m
New Line.LINE175_2012 Bus1=175_1993 Bus2=175_2013 phases=3 Linecode=3c_95_SAC_XC Length=1.8222 Units=m
New Line.LINE175_2030 Bus1=175_2009 Bus2=175_2031 phases=3 Linecode=3c_95_SAC_XC Length=0.10246 Units=m
New Line.LINE175_2053 Bus1=175_2031 Bus2=175_2054 phases=3 Linecode=3c_95_SAC_XC Length=6.6013 Units=m
New Line.LINE175_2075 Bus1=175_2054 Bus2=175_2076 phases=3 Linecode=3c_95_SAC_XC Length=0.18913 Units=m
New Line.LINE175_2098 Bus1=175_2076 Bus2=175_2099 phases=3 Linecode=3c_95_SAC_XC Length=0.24877 Units=m
New Line.LINE175_2122 Bus1=175_2099 Bus2=175_2123 phases=3 Linecode=3c_95_SAC_XC Length=0.37435 Units=m
New Line.LINE175_2124 Bus1=175_2102 Bus2=175_2125 phases=3 Linecode=3c_95_SAC_XC Length=4.3646 Units=m
New Line.LINE175_2146 Bus1=175_2123 Bus2=175_2147 phases=3 Linecode=3c_95_SAC_XC Length=0.35751 Units=m
New Line.LINE175_2169 Bus1=175_2147 Bus2=175_2170 phases=3 Linecode=3c_95_SAC_XC Length=0.52365 Units=m
New Line.LINE175_2222 Bus1=175_2196 Bus2=175_2223 phases=3 Linecode=3c_95_SAC_XC Length=4.2274 Units=m
New Line.LINE175_2250 Bus1=175_2223 Bus2=175_2251 phases=3 Linecode=3c_95_SAC_XC Length=2.7155 Units=m
New Line.LINE175_2262 Bus1=175_2235 Bus2=175_2263 phases=3 Linecode=3c_95_SAC_XC Length=1.4598 Units=m
New Line.LINE175_2279 Bus1=175_2251 Bus2=175_2280 phases=3 Linecode=3c_95_SAC_XC Length=5.1395 Units=m
New Line.LINE175_2290 Bus1=175_2263 Bus2=175_2291 phases=3 Linecode=3c_95_SAC_XC Length=3.3282 Units=m
New Line.LINE175_2307 Bus1=175_2280 Bus2=175_2308 phases=3 Linecode=3c_95_SAC_XC Length=4.5172 Units=m
New Line.LINE175_2332 Bus1=175_2308 Bus2=175_2333 phases=3 Linecode=35_SAC_PC Length=0.27432 Units=m
New Line.LINE175_2359 Bus1=175_2333 Bus2=175_2360 phases=3 Linecode=35_SAC_PC Length=0.4457 Units=m
New Line.LINE175_2370 Bus1=175_2346 Bus2=175_2371 phases=3 Linecode=3c_95_SAC_XC Length=2.3836 Units=m
New Line.LINE175_2383 Bus1=175_2360 Bus2=175_2384 phases=3 Linecode=35_SAC_PC Length=0.50224 Units=m
New Line.LINE175_2395 Bus1=175_2371 Bus2=175_2396 phases=3 Linecode=3c_95_SAC_XC Length=3.4374 Units=m
New Line.LINE175_2407 Bus1=175_2384 Bus2=175_2408 phases=3 Linecode=35_SAC_PC Length=0.23163 Units=m
New Line.LINE175_2420 Bus1=175_2396 Bus2=175_2421 phases=3 Linecode=3c_95_SAC_XC Length=4.7654 Units=m
New Line.LINE175_2434 Bus1=175_2408 Bus2=175_2435 phases=3 Linecode=35_SAC_PC Length=0.21894 Units=m
New Line.LINE175_2446 Bus1=175_2421 Bus2=175_2447 phases=3 Linecode=3c_95_SAC_XC Length=0.85381 Units=m
New Line.LINE175_2460 Bus1=175_2435 Bus2=175_2461 phases=3 Linecode=35_SAC_PC Length=0.26483 Units=m
New Line.LINE175_2471 Bus1=175_2447 Bus2=175_2472 phases=3 Linecode=3c_95_SAC_XC Length=6.1435 Units=m
New Line.LINE175_2485 Bus1=175_2461 Bus2=175_2486 phases=3 Linecode=35_SAC_PC Length=0.79699 Units=m
New Line.LINE175_2496 Bus1=175_2472 Bus2=175_2497 phases=3 Linecode=3c_95_SAC_XC Length=3.3147 Units=m
New Line.LINE175_2512 Bus1=175_2486 Bus2=175_2513 phases=3 Linecode=35_SAC_PC Length=6.3987 Units=m
New Line.LINE175_2521 Bus1=175_2497 Bus2=175_2522 phases=3 Linecode=25_SAC_XC Length=11.1519 Units=m
New Line.LINE175_2539 Bus1=175_2513 Bus2=175_2540 phases=3 Linecode=35_SAC_PC Length=0.2036 Units=m
New Line.LINE175_2547 Bus1=175_2522 Bus2=175_2548 phases=3 Linecode=25_SAC_XC Length=7.1482 Units=m
New Line.LINE175_2566 Bus1=175_2540 Bus2=175_2567 phases=3 Linecode=35_SAC_PC Length=0.32571 Units=m
New Line.LINE175_2580 Bus1=175_2561 Bus2=175_2581 phases=3 Linecode=3c_95_SAC_XC Length=8.4954 Units=m
New Line.LINE175_2586 Bus1=175_2567 Bus2=175_2587 phases=3 Linecode=35_SAC_PC Length=3.4212 Units=m
New Line.LINE175_2599 Bus1=175_2581 Bus2=175_2600 phases=3 Linecode=25_SAC_XC Length=4.5651 Units=m
New Line.LINE175_Cmpd_0 Bus1=175_51 Bus2=175_104 phases=3 Linecode=2c_.04 Length=3.7365 Units=m
New Line.LINE175_Cmpd_1 Bus1=175_660 Bus2=175_954 phases=3 Linecode=2c_.04 Length=9.70621 Units=m
New Line.LINE175_Cmpd_2 Bus1=175_355 Bus2=175_840 phases=3 Linecode=2c_.04 Length=13.52478 Units=m
New Line.LINE175_Cmpd_3 Bus1=175_1068 Bus2=175_1284 phases=3 Linecode=2c_.04 Length=19.14182 Units=m
New Line.LINE175_Cmpd_4 Bus1=175_2196 Bus2=175_2726 phases=3 Linecode=35_SAC_PC Length=22.266617 Units=m
New Line.LINE175_Cmpd_5 Bus1=175_2561 Bus2=175_2735 phases=3 Linecode=35_SAC_PC Length=13.926302 Units=m
New Line.LINE175_Cmpd_6 Bus1=175_651 Bus2=175_1195 phases=3 Linecode=3c_185_SAC_XC Length=19.77234 Units=m
New Line.LINE175_Cmpd_7 Bus1=175_440 Bus2=175_636 phases=3 Linecode=2c_.04 Length=2.41551 Units=m
New Line.LINE175_Cmpd_8 Bus1=175_2396 Bus2=175_2570 phases=3 Linecode=35_SAC_PC Length=9.77712 Units=m
New Line.LINE175_Cmpd_9 Bus1=175_421 Bus2=175_620 phases=3 Linecode=2c_.04 Length=6.33056 Units=m
New Line.LINE175_Cmpd_10 Bus1=175_325 Bus2=175_742 phases=3 Linecode=2c_.04 Length=18.23872 Units=m
New Line.LINE175_Cmpd_11 Bus1=175_378 Bus2=175_574 phases=3 Linecode=2c_.04 Length=8.80982 Units=m
New Line.LINE175_Cmpd_12 Bus1=175_1495 Bus2=175_1765 phases=3 Linecode=2c_.04 Length=21.7799 Units=m
New Line.LINE175_Cmpd_13 Bus1=175_1574 Bus2=175_2292 phases=3 Linecode=35_SAC_PC Length=33.898363 Units=m
New Line.LINE175_Cmpd_14 Bus1=175_2402 Bus2=175_2743 phases=3 Linecode=35_SAC_PC Length=40.229619 Units=m
New Line.LINE175_Cmpd_15 Bus1=175_870 Bus2=175_1194 phases=3 Linecode=35_SAC_PC Length=13.21552 Units=m
New Line.LINE175_Cmpd_16 Bus1=175_897 Bus2=175_1280 phases=3 Linecode=.04_LTC Length=9.666352 Units=m
New Line.LINE175_Cmpd_17 Bus1=175_870 Bus2=175_1228 phases=3 Linecode=35_SAC_PC Length=15.33918 Units=m
New Line.LINE175_Cmpd_18 Bus1=175_1294 Bus2=175_1575 phases=3 Linecode=35_SAC_PC Length=12.72465 Units=m
New Line.LINE175_Cmpd_19 Bus1=175_636 Bus2=175_1111 phases=3 Linecode=2c_.04 Length=24.23368 Units=m
New Line.LINE175_Cmpd_20 Bus1=175_531 Bus2=175_1030 phases=3 Linecode=16_PSC Length=5.601234 Units=m
New Line.LINE175_Cmpd_21 Bus1=175_1905 Bus2=175_2349 phases=3 Linecode=35_SAC_PC Length=29.624 Units=m
New Line.LINE175_Cmpd_22 Bus1=175_944 Bus2=175_1177 phases=3 Linecode=35_SAC_XC Length=8.6595 Units=m
New Line.LINE175_Cmpd_23 Bus1=175_1377 Bus2=175_1773 phases=3 Linecode=35_SAC_PC Length=18.91715 Units=m
New Line.LINE175_Cmpd_24 Bus1=175_1698 Bus2=175_2294 phases=3 Linecode=35_SAC_PC Length=26.813091 Units=m
New Line.LINE175_Cmpd_25 Bus1=175_574 Bus2=175_836 phases=3 Linecode=2c_.04 Length=8.51361 Units=m
New Line.LINE175_Cmpd_26 Bus1=175_199 Bus2=175_360 phases=3 Linecode=2c_.04 Length=4.22762 Units=m
New Line.LINE175_Cmpd_27 Bus1=175_336 Bus2=175_660 phases=3 Linecode=2c_.04 Length=7.06655 Units=m
New Line.LINE175_Cmpd_28 Bus1=175_2067 Bus2=175_2391 phases=3 Linecode=35_SAC_PC Length=14.42078 Units=m
New Line.LINE175_Cmpd_29 Bus1=175_165 Bus2=175_254 phases=3 Linecode=4c_.25 Length=34.2188 Units=m
New Line.LINE175_Cmpd_30 Bus1=175_2396 Bus2=175_2751 phases=3 Linecode=35_SAC_PC Length=25.11679 Units=m
New Line.LINE175_Cmpd_31 Bus1=175_1675 Bus2=175_1879 phases=3 Linecode=35_SAC_PC Length=12.41131 Units=m
New Line.LINE175_Cmpd_32 Bus1=175_354 Bus2=175_865 phases=3 Linecode=2c_.04 Length=11.6468 Units=m
New Line.LINE175_Cmpd_33 Bus1=175_1993 Bus2=175_2541 phases=3 Linecode=35_SAC_PC Length=23.285604 Units=m
New Line.LINE175_Cmpd_34 Bus1=175_954 Bus2=175_1168 phases=3 Linecode=2c_.04 Length=17.71973 Units=m
New Line.LINE175_Cmpd_35 Bus1=175_1561 Bus2=175_1742 phases=3 Linecode=35_SAC_PC Length=10.18527 Units=m
New Line.LINE175_Cmpd_36 Bus1=175_360 Bus2=175_795 phases=3 Linecode=2c_.04 Length=7.63755 Units=m
New Line.LINE175_Cmpd_37 Bus1=175_2196 Bus2=175_2696 phases=3 Linecode=35_SAC_PC Length=20.291994 Units=m
New Line.LINE175_Cmpd_38 Bus1=175_585 Bus2=175_944 phases=3 Linecode=4c_.06 Length=15.86855 Units=m
New Line.LINE175_Cmpd_39 Bus1=175_2396 Bus2=175_2749 phases=3 Linecode=35_SAC_PC Length=20.0191 Units=m
New Line.LINE175_Cmpd_40 Bus1=175_548 Bus2=175_888 phases=3 Linecode=35_SAC_PC Length=13.15167 Units=m
New Line.LINE175_Cmpd_41 Bus1=175_305 Bus2=175_548 phases=3 Linecode=3c_185_SAC_XC Length=26.04046 Units=m
New Line.LINE175_Cmpd_42 Bus1=175_1568 Bus2=175_1730 phases=3 Linecode=3c_95_SAC_XC Length=11.9803 Units=m
New Line.LINE175_Cmpd_43 Bus1=175_1423 Bus2=175_2124 phases=3 Linecode=.04_LTC Length=23.91264 Units=m
New Line.LINE175_Cmpd_44 Bus1=175_2251 Bus2=175_2586 phases=3 Linecode=35_SAC_PC Length=11.27018 Units=m
New Line.LINE175_Cmpd_45 Bus1=175_1698 Bus2=175_2397 phases=3 Linecode=35_SAC_PC Length=25.082054 Units=m
New Line.LINE175_Cmpd_46 Bus1=175_2223 Bus2=175_2605 phases=3 Linecode=35_SAC_PC Length=11.63297 Units=m
New Line.LINE175_Cmpd_47 Bus1=175_651 Bus2=175_870 phases=3 Linecode=35_SAC_PC Length=7.89227 Units=m
New Line.LINE175_Cmpd_48 Bus1=175_620 Bus2=175_900 phases=3 Linecode=2c_.04 Length=6.64942 Units=m
New Line.LINE175_Cmpd_49 Bus1=175_76 Bus2=175_147 phases=3 Linecode=2c_.04 Length=12.92772 Units=m
New Line.LINE175_Cmpd_50 Bus1=175_1763 Bus2=175_2295 phases=3 Linecode=35_SAC_PC Length=23.659438 Units=m
New Line.LINE175_Cmpd_51 Bus1=175_1763 Bus2=175_2551 phases=3 Linecode=35_SAC_PC Length=33.530847 Units=m
New Line.LINE175_Cmpd_52 Bus1=175_1905 Bus2=175_2553 phases=3 Linecode=35_SAC_PC Length=31.72572 Units=m
New Line.LINE175_Cmpd_53 Bus1=175_795 Bus2=175_1068 phases=3 Linecode=2c_.04 Length=9.90923 Units=m
New Line.LINE175_Cmpd_54 Bus1=175_1249 Bus2=175_1532 phases=3 Linecode=35_SAC_PC Length=9.71215 Units=m
New Line.LINE175_Cmpd_55 Bus1=175_2196 Bus2=175_2744 phases=3 Linecode=35_SAC_PC Length=27.227921 Units=m
New Line.LINE175_Cmpd_56 Bus1=175_1463 Bus2=175_1857 phases=3 Linecode=35_SAC_PC Length=28.27173 Units=m