New Load.LOAD175_1 Phases=1 Bus1=175_78.2 kV=0.23 kW=1 PF=0.95
New Load.LOAD175_2 Phases=1 Bus1=175_87.2 kV=0.23 kW=1 PF=0.95
New Load.LOAD175_3 Phases=1 Bus1=175_96.1 kV=0.23 kW=1 PF=0.95
New Load.LOAD175_4 Phases=1 Bus1=175_112.3 kV=0.23 kW=1 PF=0.95
New Load.LOAD175_5 Phases=1 Bus1=175_139.1 kV=0.23 kW=1 PF=0.95
New Load.LOAD175_6 Phases=1 Bus1=175_159.2 kV=0.23 kW=1 PF=0.95
New Load.LOAD175_7 Phases=1 Bus1=175_174.2 kV=0.23 kW=1 PF=0.95
New Load.LOAD175_8 Phases=1 Bus1=175_196.3 kV=0.23 kW=1 PF=0.95
New Load.LOAD175_9 Phases=1 Bus1=175_208.1 kV=0.23 kW=1 PF=0.95
New Load.LOAD175_10 Phases=1 Bus1=175_230.2 kV=0.23 kW=1 PF=0.95
New Load.LOAD175_11 Phases=1 Bus1=175_237.3 kV=0.23 kW=1 PF=0.95
New Load.LOAD175_12 Phases=1 Bus1=175_288.1 kV=0.23 kW=1 PF=0.95
New Load.LOAD175_13 Phases=1 Bus1=175_316.1 kV=0.23 kW=1 PF=0.95
New Load.LOAD175_14 Phases=1 Bus1=175_361.2 kV=0.23 kW=1 PF=0.95
New Load.LOAD175_15 Phases=1 Bus1=175_382.3 kV=0.23 kW=1 PF=0.95
New Load.LOAD175_16 Phases=1 Bus1=175_384.1 kV=0.23 kW=1 PF=0.95
New Load.LOAD175_17 Phases=1 Bus1=175_391.3 kV=0.23 kW=1 PF=0.95
New Load.LOAD175_18 Phases=1 Bus1=175_396.3 kV=0.23 kW=1 PF=0.95
New Load.LOAD175_19 Phases=1 Bus1=175_401.3 kV=0.23 kW=1 PF=0.95
New Load.LOAD175_20 Phases=1 Bus1=175_430.3 kV=0.23 kW=1 PF=0.95
New Load.LOAD175_21 Phases=1 Bus1=175_431.2 kV=0.23 kW=1 PF=0.95
New Load.LOAD175_22 Phases=1 Bus1=175_465.1 kV=0.23 kW=1 PF=0.95
New Load.LOAD175_23 Phases=1 Bus1=175_475.3 kV=0.23 kW=1 PF=0.95
New Load.LOAD175_24 Phases=1 Bus1=175_494.2 kV=0.23 kW=1 PF=0.95
New Load.LOAD175_25 Phases=1 Bus1=175_500.2 kV=0.23 kW=1 PF=0.95
New Load.LOAD175_26 Phases=1 Bus1=175_527.1 kV=0.23 kW=1 PF=0.95
New Load.LOAD175_27 Phases=1 Bus1=175_542.2 kV=0.23 kW=1 PF=0.95
New Load.LOAD175_28 Phases=1 Bus1=175_562.1 kV=0.23 kW=1 PF=0.95
New Load.LOAD175_29 Phases=1 Bus1=175_571.2 kV=0.23 kW=1 PF=0.95
New Load.LOAD175_30 Phases=1 Bus1=175_655.1 kV=0.23 kW=1 PF=0.95
New Load.LOAD175_31 Phases=1 Bus1=175_657.3 kV=0.23 kW=1 PF=0.95
New Load.LOAD175_32 Phases=1 Bus1=175_672.2 kV=0.23 kW=1 PF=0.95
New Load.LOAD175_33 Phases=1 Bus1=175_696.2 kV=0.23 kW=1 PF=0.95
New Load.LOAD175_34 Phases=1 Bus1=175_733.1 kV=0.23 kW=1 PF=0.95
New Load.LOAD175_35 Phases=1 Bus1=175_742.3 kV=0.23 kW=1 PF=0.95
New Load.LOAD175_36 Phases=1 Bus1=175_766.3 kV=0.23 kW=1 PF=0.95
New Load.LOAD175_37 Phases=1 Bus1=175_802.3 kV=0.23 kW=1 PF=0.95
New Load.LOAD175_38 Phases=1 Bus1=175_808.1 kV=0.23 kW=1 PF=0.95
New Load.LOAD175_39 Phases=1 Bus1=175_809.3 kV=0.23 kW=1 PF=0.95
New Load.LOAD175_40 Phases=1 Bus1=175_825.3 kV=0.23 kW=1 PF=0.95
New Load.LOAD175_41 Phases=1 Bus1=175_836.1 kV=0.23 kW=1 PF=0.95
New Load.LOAD175_42 Phases=1 Bus1=175_840.1 kV=0.23 kW=1 PF=0.95
New Load.LOAD175_43 Phases=1 Bus1=175_860.1 kV=0.23 kW=1 PF=0.95
New Load.LOAD175_44 Phases=1 Bus1=175_865.3 kV=0.23 kW=1 PF=0.95
New Load.LOAD175_45 Phases=1 Bus1=175_888.2 kV=0.23 kW=1 PF=0.95
New Load.LOAD175_46 Phases=1 Bus1=175_925.3 kV=0.23 kW=1 PF=0.95
New Load.LOAD175_47 Phases=1 Bus1=175_950.1 kV=0.23 kW=1 PF=0.95
New Load.LOAD175_48 Phases=1 Bus1=175_962.2 kV=0.23 kW=1 PF=0.95
New Load.LOAD175_49 Phases=1 Bus1=175_979.2 kV=0.23 kW=1 PF=0.95
New Load.LOAD175_50 Phases=1 Bus1=175_1004.1 kV=0.23 kW=1 PF=0.95
New Load.LOAD175_51 Phases=1 Bus1=175_1030.3 kV=0.23 kW=1 PF=0.95
New Load.LOAD175_52 Phases=1 Bus1=175_1056.3 kV=0.23 kW=1 PF=0.95
New Load.LOAD175_53 Phases=1 Bus1=175_1071.2 kV=0.23 kW=1 PF=0.95
New Load.LOAD175_54 Phases=1 Bus1=175_1087.3 kV=0.23 kW=1 PF=0.95
New Load.LOAD175_55 Phases=1 Bus1=175_1111.2 kV=0.23 kW=1 PF=0.95
New Load.LOAD175_56 Phases=1 Bus1=175_1144.1 kV=0.23 kW=1 PF=0.95
New Load.LOAD175_57 Phases=1 Bus1=175_1146.3 kV=0.23 kW=1 PF=0.95
New Load.LOAD175_58 Phases=1 Bus1=175_1168.2 kV=0.23 kW=1 PF=0.95
New Load.LOAD175_59 Phases=1 Bus1=175_1171.1 kV=0.23 kW=1 PF=0.95
New Load.LOAD175_60 Phases=1 Bus1=175_1177.1 kV=0.23 kW=1 PF=0.95
New Load.LOAD175_61 Phases=1 Bus1=175_1183.1 kV=0.23 kW=1 PF=0.95
New Load.LOAD175_62 Phases=1 Bus1=175_1190.2 kV=0.23 kW=1 PF=0.95
New Load.LOAD175_63 Phases=1 Bus1=175_1194.2 kV=0.23 kW=1 PF=0.95
New Load.LOAD175_64 Phases=1 Bus1=175_1218.1 kV=0.23 kW=1 PF=0.95
New Load.LOAD175_65 Phases=1 Bus1=175_1228.2 kV=0.23 kW=1 PF=0.95
New Load.LOAD175_66 Phases=1 Bus1=175_1254.1 kV=0.23 kW=1 PF=0.95
New Load.LOAD175_67 Phases=1 Bus1=175_1256.2 kV=0.23 kW=1 PF=0.95
New Load.LOAD175_68 Phases=1 Bus1=175_1276.1 kV=0.23 kW=1 PF=0.95
New Load.LOAD175_69 Phases=1 Bus1=175_1278.2 kV=0.23 kW=1 PF=0.95
New Load.LOAD175_70 Phases=1 Bus1=175_1284.3 kV=0.23 kW=1 PF=0.95
New Load.LOAD175_71 Phases=1 Bus1=175_1301.2 kV=0.23 kW=1 PF=0.95
New Load.LOAD175_72 Phases=1 Bus1=175_1309.3 kV=0.23 kW=1 PF=0.95
New Load.LOAD175_73 Phases=1 Bus1=175_1367.2 kV=0.23 kW=1 PF=0.95
New Load.LOAD175_74 Phases=1 Bus1=175_1397.1 kV=0.23 kW=1 PF=0.95
New Load.LOAD175_75 Phases=1 Bus1=175_1405.3 kV=0.23 kW=1 PF=0.95
New Load.LOAD175_76 Phases=1 Bus1=175_1425.3 kV=0.23 kW=1 PF=0.95
New Load.LOAD175_77 Phases=1 Bus1=175_1450.2 kV=0.23 kW=1 PF=0.95
New Load.LOAD175_78 Phases=1 Bus1=175_1459.1 kV=0.23 kW=1 PF=0.95
New Load.LOAD175_79 Phases=1 Bus1=175_1471.3 kV=0.23 kW=1 PF=0.95
New Load.LOAD175_80 Phases=1 Bus1=175_1483.3 kV=0.23 kW=1 PF=0.95
New Load.LOAD175_81 Phases=1 Bus1=175_1505.1 kV=0.23 kW=1 PF=0.95
New Load.LOAD175_82 Phases=1 Bus1=175_1517.3 kV=0.23 kW=1 PF=0.95
New Load.LOAD175_83 Phases=1 Bus1=175_1520.1 kV=0.23 kW=1 PF=0.95
New Load.LOAD175_84 Phases=1 Bus1=175_1532.2 kV=0.23 kW=1 PF=0.95
New Load.LOAD175_85 Phases=1 Bus1=175_1575.1 kV=0.23 kW=1 PF=0.95
New Load.LOAD175_86 Phases=1 Bus1=175_1620.3 kV=0.23 kW=1 PF=0.95
New Load.LOAD175_87 Phases=1 Bus1=175_1621.3 kV=0.23 kW=1 PF=0.95
New Load.LOAD175_88 Phases=1 Bus1=175_1628.2 kV=0.23 kW=1 PF=0.95
New Load.LOAD175_89 Phases=1 Bus1=175_1634.3 kV=0.23 kW=1 PF=0.95
New Load.LOAD175_90 Phases=1 Bus1=175_1637.2 kV=0.23 kW=1 PF=0.95
New Load.LOAD175_91 Phases=1 Bus1=175_1669.3 kV=0.23 kW=1 PF=0.95
New Load.LOAD175_92 Phases=1 Bus1=175_1676.1 kV=0.23 kW=1 PF=0.95
New Load.LOAD175_93 Phases=1 Bus1=175_1677.2 kV=0.23 kW=1 PF=0.95
New Load.LOAD175_94 Phases=1 Bus1=175_1685.2 kV=0.23 kW=1 PF=0.95
New Load.LOAD175_95 Phases=1 Bus1=175_1699.3 kV=0.23 kW=1 PF=0.95
New Load.LOAD175_96 Phases=1 Bus1=175_1720.1 kV=0.23 kW=1 PF=0.95
New Load.LOAD175_97 Phases=1 Bus1=175_1742.2 kV=0.23 kW=1 PF=0.95
New Load.LOAD175_98 Phases=1 Bus1=175_1743.3 kV=0.23 kW=1 PF=0.95
New Load.LOAD175_99 Phases=1 Bus1=175_1765.3 kV=0.23 kW=1 PF=0.95
New Load.LOAD175_100 Phases=1 Bus1=175_1773.2 kV=0.23 kW=1 PF=0.95
New Load.LOAD175_101 Phases=1 Bus1=175_1811.1 kV=0.23 kW=1 PF=0.95
New Load.LOAD175_102 Phases=1 Bus1=175_1831.2 kV=0.23 kW=1 PF=0.95
New Load.LOAD175_103 Phases=1 Bus1=175_1846.3 kV=0.23 kW=1 PF=0.95
New Load.LOAD175_104 Phases=1 Bus1=175_1854.1 kV=0.23 kW=1 PF=0.95
New Load.LOAD175_105 Phases=1 Bus1=175_1857.2 kV=0.23 kW=1 PF=0.95
New Load.LOAD175_106 Phases=1 Bus1=175_1875.1 kV=0.23 kW=1 PF=0.95
New Load.LOAD175_107 Phases=1 Bus1=175_1879.3 kV=0.23 kW=1 PF=0.95
New Load.LOAD175_108 Phases=1 Bus1=175_1890.1 kV=0.23 kW=1 PF=0.95
New Load.LOAD175_109 Phases=1 Bus1=175_1898.1 kV=0.23 kW=1 PF=0.95
New Load.LOAD175_110 Phases=1 Bus1=175_1914.1 kV=0.23 kW=1 PF=0.95
New Load.LOAD175_111 Phases=1 Bus1=175_1928.2 kV=0.23 kW=1 PF=0.95
New Load.LOAD175_112 Phases=1 Bus1=175_1936.1 kV=0.23 kW=1 PF=0.95
New Load.LOAD175_113 Phases=1 Bus1=175_1958.1 kV=0.23 kW=1 PF=0.95
New Load.LOAD175_114 Phases=1 Bus1=175_1963.2 kV=0.23 kW=1 PF=0.95
New Load.LOAD175_115 Phases=1 Bus1=175_2034.3 kV=0.23 kW=1 PF=0.95
New Load.LOAD175_116 Phases=1 Bus1=175_2124.2 kV=0.23 kW=1 PF=0.95
New Load.LOAD175_117 Phases=1 Bus1=175_2169.1 kV=0.23 kW=1 PF=0.95
New Load.LOAD175_118 Phases=1 Bus1=175_2180.3 kV=0.23 kW=1 PF=0.95
New Load.LOAD175_119 Phases=1 Bus1=175_2232.1 kV=0.23 kW=1 PF=0.95
New Load.LOAD175_120 Phases=1 Bus1=175_2258.1 kV=0.23 kW=1 PF=0.95
New Load.LOAD175_121 Phases=1 Bus1=175_2260.2 kV=0.23 kW=1 PF=0.95
New Load.LOAD175_122 Phases=1 Bus1=175_2289.2 kV=0.23 kW=1 PF=0.95
New Load.LOAD175_123 Phases=1 Bus1=175_2292.3 kV=0.23 kW=1 PF=0.95
New Load.LOAD175_124 Phases=1 Bus1=175_2294.1 kV=0.23 kW=1 PF=0.95
New Load.LOAD175_125 Phases=1 Bus1=175_2295.2 kV=0.23 kW=1 PF=0.95
New Load.LOAD175_126 Phases=1 Bus1=175_2337.3 kV=0.23 kW=1 PF=0.95
New Load.LOAD175_127 Phases=1 Bus1=175_2344.1 kV=0.23 kW=1 PF=0.95
New Load.LOAD175_128 Phases=1 Bus1=175_2349.2 kV=0.23 kW=1 PF=0.95
New Load.LOAD175_129 Phases=1 Bus1=175_2389.3 kV=0.23 kW=1 PF=0.95
New Load.LOAD175_130 Phases=1 Bus1=175_2391.2 kV=0.23 kW=1 PF=0.95
New Load.LOAD175_131 Phases=1 Bus1=175_2394.1 kV=0.23 kW=1 PF=0.95
New Load.LOAD175_132 Phases=1 Bus1=175_2397.2 kV=0.23 kW=1 PF=0.95
New Load.LOAD175_133 Phases=1 Bus1=175_2401.3 kV=0.23 kW=1 PF=0.95
New Load.LOAD175_134 Phases=1 Bus1=175_2436.1 kV=0.23 kW=1 PF=0.95
New Load.LOAD175_135 Phases=1 Bus1=175_2492.1 kV=0.23 kW=1 PF=0.95
New Load.LOAD175_136 Phases=1 Bus1=175_2514.2 kV=0.23 kW=1 PF=0.95
New Load.LOAD175_137 Phases=1 Bus1=175_2541.3 kV=0.23 kW=1 PF=0.95
New Load.LOAD175_138 Phases=1 Bus1=175_2543.1 kV=0.23 kW=1 PF=0.95
New Load.LOAD175_139 Phases=1 Bus1=175_2548.1 kV=0.23 kW=1 PF=0.95
New Load.LOAD175_140 Phases=1 Bus1=175_2551.2 kV=0.23 kW=1 PF=0.95
New Load.LOAD175_141 Phases=1 Bus1=175_2553.3 kV=0.23 kW=1 PF=0.95
New Load.LOAD175_142 Phases=1 Bus1=175_2554.1 kV=0.23 kW=1 PF=0.95
New Load.LOAD175_143 Phases=1 Bus1=175_2570.3 kV=0.23 kW=1 PF=0.95
New Load.LOAD175_144 Phases=1 Bus1=175_2586.2 kV=0.23 kW=1 PF=0.95
New Load.LOAD175_145 Phases=1 Bus1=175_2587.3 kV=0.23 kW=1 PF=0.95
New Load.LOAD175_146 Phases=1 Bus1=175_2600.1 kV=0.23 kW=1 PF=0.95
New Load.LOAD175_147 Phases=1 Bus1=175_2605.2 kV=0.23 kW=1 PF=0.95
New Load.LOAD175_148 Phases=1 Bus1=175_2676.1 kV=0.23 kW=1 PF=0.95
New Load.LOAD175_149 Phases=1 Bus1=175_2691.1 kV=0.23 kW=1 PF=0.95
New Load.LOAD175_150 Phases=1 Bus1=175_2692.3 kV=0.23 kW=1 PF=0.95
New Load.LOAD175_151 Phases=1 Bus1=175_2696.3 kV=0.23 kW=1 PF=0.95
New Load.LOAD175_152 Phases=1 Bus1=175_2715.1 kV=0.23 kW=1 PF=0.95
New Load.LOAD175_153 Phases=1 Bus1=175_2716.3 kV=0.23 kW=1 PF=0.95
New Load.LOAD175_154 Phases=1 Bus1=175_2726.2 kV=0.23 kW=1 PF=0.95
New Load.LOAD175_155 Phases=1 Bus1=175_2735.3 kV=0.23 kW=1 PF=0.95
New Load.LOAD175_156 Phases=1 Bus1=175_2743.2 kV=0.23 kW=1 PF=0.95
New Load.LOAD175_157 Phases=1 Bus1=175_2744.3 kV=0.23 kW=1 PF=0.95
New Load.LOAD175_158 Phases=1 Bus1=175_2749.2 kV=0.23 kW=1 PF=0.95
New Load.LOAD175_159 Phases=1 Bus1=175_2751.2 kV=0.23 kW=1 PF=0.95
