New Line.LINE175_1 Bus1=175_1 Bus2=175_2 phases=3 Linecode=3c_300_SAC_XC Length=0.79437 Units=m
New Line.LINE175_2 Bus1=175_2 Bus2=175_3 phases=3 Linecode=3c_300_SAC_XC Length=0.123 Units=m
New Line.LINE175_3 Bus1=175_3 Bus2=175_4 phases=3 Linecode=3c_300_SAC_XC Length=0.12315 Units=m
New Line.LINE175_4 Bus1=175_4 Bus2=175_5 phases=3 Linecode=3c_300_SAC_XC Length=0.12332 Units=m
New Line.LINE175_5 Bus1=175_5 Bus2=175_6 phases=3 Linecode=3c_300_SAC_XC Length=0.12238 Units=m
New Line.LINE175_6 Bus1=175_6 Bus2=175_7 phases=3 Linecode=3c_300_SAC_XC Length=0.12355 Units=m
New Line.LINE175_7 Bus1=175_7 Bus2=175_8 phases=3 Linecode=3c_300_SAC_XC Length=0.12215 Units=m
New Line.LINE175_8 Bus1=175_8 Bus2=175_9 phases=3 Linecode=3c_300_SAC_XC Length=0.12355 Units=m
New Line.LINE175_9 Bus1=175_9 Bus2=175_10 phases=3 Linecode=3c_300_SAC_XC Length=0.12355 Units=m
New Line.LINE175_10 Bus1=175_10 Bus2=175_11 phases=3 Linecode=3c_300_SAC_XC Length=2.189 Units=m
New Line.LINE175_11 Bus1=175_11 Bus2=175_12 phases=3 Linecode=3c_300_SAC_XC Length=1.0177 Units=m
New Line.LINE175_12 Bus1=175_12 Bus2=175_13 phases=3 Linecode=3c_300_SAC_XC Length=0.093038 Units=m
New Line.LINE175_13 Bus1=175_13 Bus2=175_14 phases=3 Linecode=3c_300_SAC_XC Length=0.092655 Units=m
New Line.LINE175_14 Bus1=175_14 Bus2=175_15 phases=3 Linecode=3c_300_SAC_XC Length=0.091935 Units=m
New Line.LINE175_15 Bus1=175_15 Bus2=175_16 phases=3 Linecode=3c_300_SAC_XC Length=0.093006 Units=m
New Line.LINE175_16 Bus1=175_16 Bus2=175_17 phases=3 Linecode=3c_300_SAC_XC Length=0.092573 Units=m
New Line.LINE175_17 Bus1=175_17 Bus2=175_18 phases=3 Linecode=3c_300_SAC_XC Length=0.093301 Units=m
New Line.LINE175_18 Bus1=175_18 Bus2=175_19 phases=3 Linecode=3c_300_SAC_XC Length=3.652 Units=m
New Line.LINE175_19 Bus1=175_19 Bus2=175_20 phases=3 Linecode=3c_300_SAC_XC Length=0.23559 Units=m
New Line.LINE175_20 Bus1=175_20 Bus2=175_21 phases=3 Linecode=3c_300_SAC_XC Length=0.23526 Units=m
New Line.LINE175_21 Bus1=175_21 Bus2=175_22 phases=3 Linecode=3c_300_SAC_XC Length=0.235 Units=m
New Line.LINE175_22 Bus1=175_22 Bus2=175_23 phases=3 Linecode=3c_300_SAC_XC Length=0.23483 Units=m
New Line.LINE175_23 Bus1=175_23 Bus2=175_24 phases=3 Linecode=3c_300_SAC_XC Length=0.23548 Units=m
New Line.LINE175_24 Bus1=175_24 Bus2=175_25 phases=3 Linecode=3c_300_SAC_XC Length=0.36405 Units=m
New Line.LINE175_25 Bus1=175_25 Bus2=175_26 phases=3 Linecode=3c_300_SAC_XC Length=1.0081 Units=m
New Line.LINE175_26 Bus1=175_26 Bus2=175_27 phases=3 Linecode=3c_300_SAC_XC Length=0.1367 Units=m
New Line.LINE175_27 Bus1=175_27 Bus2=175_28 phases=3 Linecode=3c_300_SAC_XC Length=29.8356 Units=m
New Line.LINE175_28 Bus1=175_28 Bus2=175_29 phases=3 Linecode=3c_300_SAC_XC Length=0.74403 Units=m
New Line.LINE175_29 Bus1=175_29 Bus2=175_30 phases=3 Linecode=3c_300_SAC_XC Length=0.042953 Units=m
New Line.LINE175_30 Bus1=175_30 Bus2=175_31 phases=3 Linecode=3c_300_SAC_XC Length=0.041617 Units=m
New Line.LINE175_31 Bus1=175_31 Bus2=175_32 phases=3 Linecode=3c_300_SAC_XC Length=0.043139 Units=m
New Line.LINE175_32 Bus1=175_32 Bus2=175_33 phases=3 Linecode=3c_300_SAC_XC Length=0.04134 Units=m
New Line.LINE175_33 Bus1=175_33 Bus2=175_34 phases=3 Linecode=3c_300_SAC_XC Length=0.043081 Units=m
New Line.LINE175_34 Bus1=175_34 Bus2=175_35 phases=3 Linecode=3c_300_SAC_XC Length=0.041593 Units=m
New Line.LINE175_35 Bus1=175_35 Bus2=175_36 phases=3 Linecode=3c_300_SAC_XC Length=0.042013 Units=m
New Line.LINE175_36 Bus1=175_36 Bus2=175_37 phases=3 Linecode=3c_300_SAC_XC Length=0.042753 Units=m
New Line.LINE175_37 Bus1=175_37 Bus2=175_38 phases=3 Linecode=3c_300_SAC_XC Length=3.1574 Units=m
New Line.LINE175_38 Bus1=175_38 Bus2=175_39 phases=3 Linecode=4c_.25 Length=1.2503 Units=m
New Line.LINE175_39 Bus1=175_39 Bus2=175_40 phases=3 Linecode=3c_300_SAC_XC Length=0.91234 Units=m
New Line.LINE175_40 Bus1=175_39 Bus2=175_41 phases=3 Linecode=4c_.25 Length=10.8805 Units=m
New Line.LINE175_41 Bus1=175_40 Bus2=175_42 phases=3 Linecode=3c_300_SAC_XC Length=0.13809 Units=m
New Line.LINE175_42 Bus1=175_41 Bus2=175_43 phases=3 Linecode=2c_.04 Length=12.0689 Units=m
New Line.LINE175_43 Bus1=175_41 Bus2=175_44 phases=3 Linecode=4c_.25 Length=11.4005 Units=m
New Line.LINE175_44 Bus1=175_42 Bus2=175_45 phases=3 Linecode=3c_300_SAC_XC Length=0.25294 Units=m
New Line.LINE175_45 Bus1=175_43 Bus2=175_46 phases=3 Linecode=2c_.04 Length=0.76324 Units=m
New Line.LINE175_46 Bus1=175_44 Bus2=175_47 phases=3 Linecode=4c_.25 Length=18.9738 Units=m
New Line.LINE175_47 Bus1=175_45 Bus2=175_48 phases=3 Linecode=4c_.25 Length=0.39015 Units=m
New Line.LINE175_48 Bus1=175_45 Bus2=175_49 phases=3 Linecode=4c_.25 Length=5.8542 Units=m
New Line.LINE175_49 Bus1=175_46 Bus2=175_50 phases=3 Linecode=2c_.04 Length=0.20064 Units=m
New Line.LINE175_50 Bus1=175_47 Bus2=175_51 phases=3 Linecode=2c_.04 Length=12.2012 Units=m
New Line.LINE175_51 Bus1=175_47 Bus2=175_52 phases=3 Linecode=4c_.25 Length=2.3413 Units=m
New Line.LINE175_52 Bus1=175_49 Bus2=175_53 phases=3 Linecode=4c_.25 Length=17.0783 Units=m
New Line.LINE175_53 Bus1=175_50 Bus2=175_54 phases=3 Linecode=2c_.04 Length=0.1643 Units=m
New Line.LINE175_54 Bus1=175_51 Bus2=175_55 phases=3 Linecode=2c_.04 Length=1.6182 Units=m
New Line.LINE175_55 Bus1=175_51 Bus2=175_56 phases=3 Linecode=2c_.04 Length=4.6919 Units=m
New Line.LINE175_56 Bus1=175_52 Bus2=175_57 phases=3 Linecode=4c_.25 Length=0.37571 Units=m
New Line.LINE175_57 Bus1=175_52 Bus2=175_58 phases=3 Linecode=4c_.25 Length=5.7939 Units=m
New Line.LINE175_58 Bus1=175_53 Bus2=175_59 phases=3 Linecode=4c_.25 Length=27.1081 Units=m
New Line.LINE175_59 Bus1=175_54 Bus2=175_60 phases=3 Linecode=2c_.04 Length=0.14001 Units=m
New Line.LINE175_60 Bus1=175_55 Bus2=175_61 phases=3 Linecode=2c_.04 Length=0.41782 Units=m
New Line.LINE175_61 Bus1=175_56 Bus2=175_62 phases=3 Linecode=2c_.04 Length=0.33236 Units=m
New Line.LINE175_62 Bus1=175_57 Bus2=175_63 phases=3 Linecode=4c_.25 Length=0.054673 Units=m
New Line.LINE175_63 Bus1=175_58 Bus2=175_64 phases=3 Linecode=4c_.25 Length=7.9955 Units=m
New Line.LINE175_64 Bus1=175_59 Bus2=175_65 phases=3 Linecode=4c_.25 Length=7.9955 Units=m
New Line.LINE175_65 Bus1=175_60 Bus2=175_66 phases=3 Linecode=2c_.04 Length=0.25205 Units=m
New Line.LINE175_66 Bus1=175_61 Bus2=175_67 phases=3 Linecode=2c_.04 Length=0.15523 Units=m
New Line.LINE175_67 Bus1=175_62 Bus2=175_68 phases=3 Linecode=2c_.04 Length=0.14941 Units=m
New Line.LINE175_68 Bus1=175_63 Bus2=175_69 phases=3 Linecode=4c_.25 Length=0.054036 Units=m
New Line.LINE175_69 Bus1=175_64 Bus2=175_70 phases=3 Linecode=4c_.25 Length=14.4813 Units=m
New Line.LINE175_70 Bus1=175_65 Bus2=175_71 phases=3 Linecode=4c_.25 Length=20.299 Units=m
New Line.LINE175_71 Bus1=175_66 Bus2=175_72 phases=3 Linecode=2c_.04 Length=0.49802 Units=m
New Line.LINE175_72 Bus1=175_67 Bus2=175_73 phases=3 Linecode=2c_.04 Length=0.14036 Units=m
New Line.LINE175_73 Bus1=175_68 Bus2=175_74 phases=3 Linecode=2c_.04 Length=0.187 Units=m
New Line.LINE175_74 Bus1=175_69 Bus2=175_75 phases=3 Linecode=4c_.25 Length=0.054588 Units=m
New Line.LINE175_75 Bus1=175_70 Bus2=175_76 phases=3 Linecode=4c_.25 Length=0.78653 Units=m
New Line.LINE175_76 Bus1=175_71 Bus2=175_77 phases=3 Linecode=4c_.25 Length=24.4256 Units=m
New Line.LINE175_77 Bus1=175_72 Bus2=175_78 phases=3 Linecode=2c_.04 Length=4.538 Units=m
New Line.LINE175_78 Bus1=175_72 Bus2=175_79 phases=3 Linecode=2c_.04 Length=3.6242 Units=m
New Line.LINE175_79 Bus1=175_73 Bus2=175_80 phases=3 Linecode=2c_.04 Length=0.11124 Units=m
New Line.LINE175_80 Bus1=175_74 Bus2=175_81 phases=3 Linecode=2c_.04 Length=0.33711 Units=m
New Line.LINE175_81 Bus1=175_75 Bus2=175_82 phases=3 Linecode=4c_.25 Length=0.054708 Units=m
New Line.LINE175_82 Bus1=175_76 Bus2=175_83 phases=3 Linecode=2c_.04 Length=7.4519 Units=m
New Line.LINE175_83 Bus1=175_76 Bus2=175_84 phases=3 Linecode=4c_.25 Length=5.3481 Units=m
New Line.LINE175_84 Bus1=175_77 Bus2=175_85 phases=3 Linecode=4c_.25 Length=3.1516 Units=m
New Line.LINE175_85 Bus1=175_77 Bus2=175_86 phases=3 Linecode=2c_.007 Length=0.61422 Units=m
New Line.LINE175_86 Bus1=175_79 Bus2=175_87 phases=3 Linecode=2c_.04 Length=5.4403 Units=m
New Line.LINE175_87 Bus1=175_80 Bus2=175_88 phases=3 Linecode=2c_.04 Length=0.11954 Units=m
New Line.LINE175_88 Bus1=175_81 Bus2=175_89 phases=3 Linecode=2c_.04 Length=0.67653 Units=m
New Line.LINE175_89 Bus1=175_82 Bus2=175_90 phases=3 Linecode=4c_.25 Length=0.053461 Units=m
New Line.LINE175_90 Bus1=175_83 Bus2=175_91 phases=3 Linecode=2c_.04 Length=3.1522 Units=m
New Line.LINE175_91 Bus1=175_84 Bus2=175_92 phases=3 Linecode=4c_.25 Length=10.7165 Units=m
New Line.LINE175_92 Bus1=175_85 Bus2=175_93 phases=3 Linecode=4c_.25 Length=0.366 Units=m
New Line.LINE175_93 Bus1=175_86 Bus2=175_94 phases=3 Linecode=2c_.007 Length=0.058599 Units=m
New Line.LINE175_94 Bus1=175_88 Bus2=175_95 phases=3 Linecode=2c_.04 Length=0.25049 Units=m
New Line.LINE175_95 Bus1=175_89 Bus2=175_96 phases=3 Linecode=2c_.04 Length=6.8722 Units=m
New Line.LINE175_96 Bus1=175_89 Bus2=175_97 phases=3 Linecode=2c_.04 Length=0.87663 Units=m
New Line.LINE175_97 Bus1=175_90 Bus2=175_98 phases=3 Linecode=4c_.25 Length=0.054038 Units=m
New Line.LINE175_98 Bus1=175_91 Bus2=175_99 phases=3 Linecode=2c_.04 Length=1.1226 Units=m
New Line.LINE175_99 Bus1=175_92 Bus2=175_100 phases=3 Linecode=4c_.25 Length=19.7474 Units=m
New Line.LINE175_100 Bus1=175_92 Bus2=175_101 phases=3 Linecode=2c_.04 Length=8.6144 Units=m
New Line.LINE175_101 Bus1=175_93 Bus2=175_102 phases=3 Linecode=4c_.25 Length=0.26829 Units=m
New Line.LINE175_102 Bus1=175_94 Bus2=175_103 phases=3 Linecode=2c_.007 Length=0.058601 Units=m
New Line.LINE175_103 Bus1=175_95 Bus2=175_104 phases=3 Linecode=2c_.04 Length=0.92362 Units=m
New Line.LINE175_104 Bus1=175_97 Bus2=175_105 phases=3 Linecode=2c_.04 Length=0.20475 Units=m
New Line.LINE175_105 Bus1=175_98 Bus2=175_106 phases=3 Linecode=4c_.25 Length=1.6295 Units=m
New Line.LINE175_106 Bus1=175_99 Bus2=175_107 phases=3 Linecode=2c_.04 Length=0.20719 Units=m
New Line.LINE175_107 Bus1=175_100 Bus2=175_108 phases=3 Linecode=4c_.25 Length=7.9385 Units=m
New Line.LINE175_108 Bus1=175_101 Bus2=175_109 phases=3 Linecode=2c_.04 Length=0.45275 Units=m
New Line.LINE175_109 Bus1=175_102 Bus2=175_110 phases=3 Linecode=4c_.25 Length=0.19163 Units=m
New Line.LINE175_110 Bus1=175_103 Bus2=175_111 phases=3 Linecode=2c_.007 Length=0.058729 Units=m
New Line.LINE175_111 Bus1=175_104 Bus2=175_112 phases=3 Linecode=2c_.04 Length=5.5946 Units=m
New Line.LINE175_112 Bus1=175_104 Bus2=175_113 phases=3 Linecode=2c_.04 Length=0.7278 Units=m
New Line.LINE175_113 Bus1=175_105 Bus2=175_114 phases=3 Linecode=2c_.04 Length=0.14328 Units=m
New Line.LINE175_114 Bus1=175_106 Bus2=175_115 phases=3 Linecode=4c_.25 Length=0.057078 Units=m
New Line.LINE175_115 Bus1=175_107 Bus2=175_116 phases=3 Linecode=2c_.04 Length=0.16282 Units=m
New Line.LINE175_116 Bus1=175_108 Bus2=175_117 phases=3 Linecode=4c_.12 Length=0.87092 Units=m
New Line.LINE175_117 Bus1=175_108 Bus2=175_118 phases=3 Linecode=4c_.25 Length=4.9378 Units=m
New Line.LINE175_118 Bus1=175_109 Bus2=175_119 phases=3 Linecode=2c_.04 Length=0.34472 Units=m
New Line.LINE175_119 Bus1=175_110 Bus2=175_120 phases=3 Linecode=4c_.25 Length=8.9153 Units=m
New Line.LINE175_120 Bus1=175_111 Bus2=175_121 phases=3 Linecode=2c_.007 Length=0.058309 Units=m
New Line.LINE175_121 Bus1=175_113 Bus2=175_122 phases=3 Linecode=2c_.04 Length=0.26032 Units=m
New Line.LINE175_122 Bus1=175_114 Bus2=175_123 phases=3 Linecode=2c_.04 Length=0.12104 Units=m
New Line.LINE175_123 Bus1=175_115 Bus2=175_124 phases=3 Linecode=4c_.25 Length=0.057705 Units=m
New Line.LINE175_124 Bus1=175_116 Bus2=175_125 phases=3 Linecode=2c_.04 Length=0.14094 Units=m
New Line.LINE175_125 Bus1=175_117 Bus2=175_126 phases=3 Linecode=4c_.12 Length=9.0931 Units=m
New Line.LINE175_126 Bus1=175_118 Bus2=175_127 phases=3 Linecode=2c_.04 Length=7.5904 Units=m
New Line.LINE175_127 Bus1=175_118 Bus2=175_128 phases=3 Linecode=4c_.25 Length=1.772 Units=m
New Line.LINE175_128 Bus1=175_119 Bus2=175_129 phases=3 Linecode=2c_.04 Length=0.28663 Units=m
New Line.LINE175_129 Bus1=175_120 Bus2=175_130 phases=3 Linecode=4c_.25 Length=7.0668 Units=m
New Line.LINE175_130 Bus1=175_121 Bus2=175_131 phases=3 Linecode=2c_.007 Length=0.059464 Units=m
New Line.LINE175_131 Bus1=175_122 Bus2=175_132 phases=3 Linecode=2c_.04 Length=0.19267 Units=m
New Line.LINE175_132 Bus1=175_123 Bus2=175_133 phases=3 Linecode=2c_.04 Length=0.14886 Units=m
New Line.LINE175_133 Bus1=175_124 Bus2=175_134 phases=3 Linecode=4c_.25 Length=0.057586 Units=m
New Line.LINE175_134 Bus1=175_125 Bus2=175_135 phases=3 Linecode=2c_.04 Length=0.2033 Units=m
New Line.LINE175_135 Bus1=175_126 Bus2=175_136 phases=3 Linecode=4c_.12 Length=2.3274 Units=m
New Line.LINE175_136 Bus1=175_127 Bus2=175_137 phases=3 Linecode=2c_.04 Length=0.91813 Units=m
New Line.LINE175_137 Bus1=175_127 Bus2=175_138 phases=3 Linecode=2c_.04 Length=5.9452 Units=m
New Line.LINE175_138 Bus1=175_128 Bus2=175_139 phases=3 Linecode=25_SAC_XC Length=4.6884 Units=m
New Line.LINE175_139 Bus1=175_128 Bus2=175_140 phases=3 Linecode=4c_.25 Length=12.0214 Units=m
New Line.LINE175_140 Bus1=175_129 Bus2=175_141 phases=3 Linecode=2c_.04 Length=0.33594 Units=m
New Line.LINE175_141 Bus1=175_130 Bus2=175_142 phases=3 Linecode=4c_.25 Length=9.2881 Units=m
New Line.LINE175_142 Bus1=175_131 Bus2=175_143 phases=3 Linecode=2c_.007 Length=0.058695 Units=m
New Line.LINE175_143 Bus1=175_132 Bus2=175_144 phases=3 Linecode=2c_.04 Length=0.125 Units=m
New Line.LINE175_144 Bus1=175_133 Bus2=175_145 phases=3 Linecode=2c_.04 Length=0.39248 Units=m
New Line.LINE175_145 Bus1=175_134 Bus2=175_146 phases=3 Linecode=4c_.25 Length=0.056939 Units=m
New Line.LINE175_146 Bus1=175_135 Bus2=175_147 phases=3 Linecode=2c_.04 Length=0.48677 Units=m
New Line.LINE175_147 Bus1=175_136 Bus2=175_148 phases=3 Linecode=4c_.12 Length=0.47282 Units=m
New Line.LINE175_148 Bus1=175_137 Bus2=175_149 phases=3 Linecode=2c_.04 Length=0.279 Units=m
New Line.LINE175_149 Bus1=175_138 Bus2=175_150 phases=3 Linecode=2c_.04 Length=0.40817 Units=m
New Line.LINE175_150 Bus1=175_140 Bus2=175_151 phases=3 Linecode=4c_.25 Length=0.36049 Units=m
New Line.LINE175_151 Bus1=175_141 Bus2=175_152 phases=3 Linecode=2c_.04 Length=0.39906 Units=m
New Line.LINE175_152 Bus1=175_142 Bus2=175_153 phases=3 Linecode=4c_.25 Length=18.6396 Units=m
New Line.LINE175_153 Bus1=175_142 Bus2=175_154 phases=3 Linecode=4c_.25 Length=0.15649 Units=m
New Line.LINE175_154 Bus1=175_143 Bus2=175_155 phases=3 Linecode=2c_.007 Length=0.058035 Units=m
New Line.LINE175_155 Bus1=175_144 Bus2=175_156 phases=3 Linecode=2c_.04 Length=0.096565 Units=m
New Line.LINE175_156 Bus1=175_145 Bus2=175_157 phases=3 Linecode=2c_.04 Length=4.5461 Units=m
New Line.LINE175_157 Bus1=175_146 Bus2=175_158 phases=3 Linecode=4c_.25 Length=0.057385 Units=m
New Line.LINE175_158 Bus1=175_147 Bus2=175_159 phases=3 Linecode=2c_.04 Length=4.8641 Units=m
New Line.LINE175_159 Bus1=175_147 Bus2=175_160 phases=3 Linecode=2c_.04 Length=4.619 Units=m
New Line.LINE175_160 Bus1=175_148 Bus2=175_161 phases=3 Linecode=4c_.12 Length=0.43112 Units=m
New Line.LINE175_161 Bus1=175_149 Bus2=175_162 phases=3 Linecode=2c_.04 Length=0.22411 Units=m
New Line.LINE175_162 Bus1=175_150 Bus2=175_163 phases=3 Linecode=2c_.04 Length=0.21079 Units=m
New Line.LINE175_163 Bus1=175_151 Bus2=175_164 phases=3 Linecode=4_XC Length=0.30716 Units=m
New Line.LINE175_164 Bus1=175_151 Bus2=175_165 phases=3 Linecode=4c_.25 Length=22.3097 Units=m
New Line.LINE175_165 Bus1=175_152 Bus2=175_166 phases=3 Linecode=2c_.04 Length=0.61124 Units=m
New Line.LINE175_166 Bus1=175_153 Bus2=175_167 phases=3 Linecode=4c_.25 Length=18.2891 Units=m
New Line.LINE175_167 Bus1=175_153 Bus2=175_168 phases=3 Linecode=4_PC Length=0.25224 Units=m
New Line.LINE175_168 Bus1=175_154 Bus2=175_169 phases=3 Linecode=4c_.25 Length=0.11015 Units=m
New Line.LINE175_169 Bus1=175_155 Bus2=175_170 phases=3 Linecode=2c_.007 Length=0.058693 Units=m
New Line.LINE175_170 Bus1=175_156 Bus2=175_171 phases=3 Linecode=2c_.04 Length=0.17669 Units=m
New Line.LINE175_171 Bus1=175_157 Bus2=175_172 phases=3 Linecode=2c_.04 Length=0.18766 Units=m
New Line.LINE175_172 Bus1=175_158 Bus2=175_173 phases=3 Linecode=4c_.25 Length=0.0564 Units=m
New Line.LINE175_173 Bus1=175_160 Bus2=175_174 phases=3 Linecode=2c_.04 Length=5.0194 Units=m
New Line.LINE175_174 Bus1=175_161 Bus2=175_175 phases=3 Linecode=4c_.12 Length=0.4659 Units=m
New Line.LINE175_175 Bus1=175_162 Bus2=175_176 phases=3 Linecode=2c_.04 Length=0.33723 Units=m
New Line.LINE175_176 Bus1=175_163 Bus2=175_177 phases=3 Linecode=2c_.04 Length=0.419 Units=m
New Line.LINE175_177 Bus1=175_164 Bus2=175_178 phases=3 Linecode=4_XC Length=0.084853 Units=m
New Line.LINE175_178 Bus1=175_165 Bus2=175_179 phases=3 Linecode=4c_.25 Length=2.3275 Units=m
New Line.LINE175_179 Bus1=175_165 Bus2=175_180 phases=3 Linecode=2c_.04 Length=0.70786 Units=m
New Line.LINE175_180 Bus1=175_166 Bus2=175_181 phases=3 Linecode=2c_.04 Length=0.42629 Units=m
New Line.LINE175_181 Bus1=175_167 Bus2=175_182 phases=3 Linecode=4c_.25 Length=10.0969 Units=m
New Line.LINE175_182 Bus1=175_167 Bus2=175_183 phases=3 Linecode=2c_.007 Length=0.15318 Units=m
New Line.LINE175_183 Bus1=175_168 Bus2=175_184 phases=3 Linecode=4_PC Length=0.12481 Units=m
New Line.LINE175_184 Bus1=175_169 Bus2=175_185 phases=3 Linecode=4c_.25 Length=0.22498 Units=m
New Line.LINE175_185 Bus1=175_170 Bus2=175_186 phases=3 Linecode=2c_.007 Length=0.44493 Units=m
New Line.LINE175_186 Bus1=175_171 Bus2=175_187 phases=3 Linecode=2c_.04 Length=0.29253 Units=m
New Line.LINE175_187 Bus1=175_172 Bus2=175_188 phases=3 Linecode=2c_.04 Length=0.17624 Units=m
New Line.LINE175_188 Bus1=175_173 Bus2=175_189 phases=3 Linecode=4c_.25 Length=0.058138 Units=m
New Line.LINE175_189 Bus1=175_175 Bus2=175_190 phases=3 Linecode=4c_.12 Length=3.3758 Units=m
New Line.LINE175_190 Bus1=175_176 Bus2=175_191 phases=3 Linecode=2c_.04 Length=0.88238 Units=m
New Line.LINE175_191 Bus1=175_177 Bus2=175_192 phases=3 Linecode=2c_.04 Length=0.47995 Units=m
New Line.LINE175_192 Bus1=175_178 Bus2=175_193 phases=3 Linecode=4_XC Length=0.085381 Units=m
New Line.LINE175_193 Bus1=175_179 Bus2=175_194 phases=3 Linecode=4c_.25 Length=12.8546 Units=m
New Line.LINE175_194 Bus1=175_180 Bus2=175_195 phases=3 Linecode=2c_.04 Length=11.2932 Units=m
New Line.LINE175_195 Bus1=175_181 Bus2=175_196 phases=3 Linecode=2c_.04 Length=5.1097 Units=m
New Line.LINE175_196 Bus1=175_181 Bus2=175_197 phases=3 Linecode=2c_.04 Length=0.58934 Units=m
New Line.LINE175_197 Bus1=175_182 Bus2=175_198 phases=3 Linecode=4c_.25 Length=13.5453 Units=m
New Line.LINE175_198 Bus1=175_182 Bus2=175_199 phases=3 Linecode=2c_.04 Length=4.3768 Units=m
New Line.LINE175_199 Bus1=175_183 Bus2=175_200 phases=3 Linecode=2c_.007 Length=0.13259 Units=m
New Line.LINE175_200 Bus1=175_184 Bus2=175_201 phases=3 Linecode=4_PC Length=0.10668 Units=m
New Line.LINE175_201 Bus1=175_185 Bus2=175_202 phases=3 Linecode=4c_.25 Length=0.13982 Units=m
New Line.LINE175_202 Bus1=175_186 Bus2=175_203 phases=3 Linecode=4_XSC Length=0.56683 Units=m
New Line.LINE175_203 Bus1=175_187 Bus2=175_204 phases=3 Linecode=2c_.04 Length=4.6631 Units=m
New Line.LINE175_204 Bus1=175_188 Bus2=175_205 phases=3 Linecode=2c_.04 Length=0.11814 Units=m
New Line.LINE175_205 Bus1=175_189 Bus2=175_206 phases=3 Linecode=4c_.25 Length=0.3887 Units=m
New Line.LINE175_206 Bus1=175_190 Bus2=175_207 phases=3 Linecode=4c_.12 Length=6.0016 Units=m
New Line.LINE175_207 Bus1=175_191 Bus2=175_208 phases=3 Linecode=2c_.04 Length=5.5803 Units=m
New Line.LINE175_208 Bus1=175_191 Bus2=175_209 phases=3 Linecode=2c_.04 Length=0.64429 Units=m
New Line.LINE175_209 Bus1=175_192 Bus2=175_210 phases=3 Linecode=2c_.04 Length=0.33384 Units=m
New Line.LINE175_210 Bus1=175_193 Bus2=175_211 phases=3 Linecode=4_XC Length=0.085089 Units=m
New Line.LINE175_211 Bus1=175_194 Bus2=175_212 phases=3 Linecode=4c_.25 Length=1.4678 Units=m
New Line.LINE175_212 Bus1=175_194 Bus2=175_213 phases=3 Linecode=4c_.25 Length=0.94348 Units=m
New Line.LINE175_213 Bus1=175_195 Bus2=175_214 phases=3 Linecode=2c_.04 Length=4.3808 Units=m
New Line.LINE175_214 Bus1=175_195 Bus2=175_215 phases=3 Linecode=2c_.04 Length=3.9874 Units=m
New Line.LINE175_215 Bus1=175_197 Bus2=175_216 phases=3 Linecode=2c_.04 Length=4.8491 Units=m
New Line.LINE175_216 Bus1=175_198 Bus2=175_217 phases=3 Linecode=4c_.25 Length=20.8243 Units=m
New Line.LINE175_217 Bus1=175_199 Bus2=175_218 phases=3 Linecode=2c_.04 Length=2.6958 Units=m
New Line.LINE175_218 Bus1=175_199 Bus2=175_219 phases=3 Linecode=2c_.04 Length=2.7364 Units=m
New Line.LINE175_219 Bus1=175_200 Bus2=175_220 phases=3 Linecode=2c_.007 Length=0.17141 Units=m
New Line.LINE175_220 Bus1=175_201 Bus2=175_221 phases=3 Linecode=4_PC Length=0.24947 Units=m
New Line.LINE175_221 Bus1=175_202 Bus2=175_222 phases=3 Linecode=4c_.25 Length=0.22821 Units=m
New Line.LINE175_222 Bus1=175_203 Bus2=175_223 phases=3 Linecode=4_XSC Length=0.074726 Units=m
New Line.LINE175_223 Bus1=175_204 Bus2=175_224 phases=3 Linecode=2c_.04 Length=0.23658 Units=m
New Line.LINE175_224 Bus1=175_205 Bus2=175_225 phases=3 Linecode=2c_.04 Length=0.18707 Units=m
New Line.LINE175_225 Bus1=175_206 Bus2=175_226 phases=3 Linecode=4c_.25 Length=2.5216 Units=m
New Line.LINE175_226 Bus1=175_207 Bus2=175_227 phases=3 Linecode=2c_.04 Length=11.4901 Units=m
New Line.LINE175_227 Bus1=175_207 Bus2=175_228 phases=3 Linecode=4c_.12 Length=10.6748 Units=m
New Line.LINE175_228 Bus1=175_209 Bus2=175_229 phases=3 Linecode=2c_.04 Length=0.44158 Units=m
New Line.LINE175_229 Bus1=175_210 Bus2=175_230 phases=3 Linecode=2c_.04 Length=5.9129 Units=m
New Line.LINE175_230 Bus1=175_210 Bus2=175_231 phases=3 Linecode=2c_.04 Length=0.3005 Units=m
New Line.LINE175_231 Bus1=175_211 Bus2=175_232 phases=3 Linecode=4_XC Length=0.084505 Units=m
New Line.LINE175_232 Bus1=175_212 Bus2=175_233 phases=3 Linecode=4c_.25 Length=11.3451 Units=m
New Line.LINE175_233 Bus1=175_213 Bus2=175_234 phases=3 Linecode=4c_.25 Length=0.052611 Units=m
New Line.LINE175_234 Bus1=175_214 Bus2=175_235 phases=3 Linecode=2c_.04 Length=0.14837 Units=m
New Line.LINE175_235 Bus1=175_215 Bus2=175_236 phases=3 Linecode=2c_.04 Length=0.17182 Units=m
New Line.LINE175_236 Bus1=175_216 Bus2=175_237 phases=3 Linecode=2c_.04 Length=5.1818 Units=m
New Line.LINE175_237 Bus1=175_217 Bus2=175_238 phases=3 Linecode=4c_.25 Length=12.0775 Units=m
New Line.LINE175_238 Bus1=175_217 Bus2=175_239 phases=3 Linecode=4c_.25 Length=0.11543 Units=m
New Line.LINE175_239 Bus1=175_218 Bus2=175_240 phases=3 Linecode=2c_.04 Length=0.25274 Units=m
New Line.LINE175_240 Bus1=175_219 Bus2=175_241 phases=3 Linecode=2c_.04 Length=0.50973 Units=m
New Line.LINE175_241 Bus1=175_220 Bus2=175_242 phases=3 Linecode=2c_.007 Length=0.33889 Units=m
New Line.LINE175_242 Bus1=175_221 Bus2=175_243 phases=3 Linecode=4_PC Length=0.076237 Units=m
New Line.LINE175_243 Bus1=175_223 Bus2=175_244 phases=3 Linecode=4_XSC Length=0.07433 Units=m
New Line.LINE175_244 Bus1=175_224 Bus2=175_245 phases=3 Linecode=2c_.04 Length=0.15869 Units=m
New Line.LINE175_245 Bus1=175_225 Bus2=175_246 phases=3 Linecode=2c_.04 Length=0.1941 Units=m
New Line.LINE175_246 Bus1=175_226 Bus2=175_247 phases=3 Linecode=4c_.25 Length=0.04338 Units=m
New Line.LINE175_247 Bus1=175_227 Bus2=175_248 phases=3 Linecode=2c_.04 Length=0.31368 Units=m
New Line.LINE175_248 Bus1=175_228 Bus2=175_249 phases=3 Linecode=2c_.007 Length=0.19647 Units=m
New Line.LINE175_249 Bus1=175_228 Bus2=175_250 phases=3 Linecode=4c_.12 Length=6.0347 Units=m
New Line.LINE175_250 Bus1=175_229 Bus2=175_251 phases=3 Linecode=2c_.04 Length=0.24559 Units=m
New Line.LINE175_251 Bus1=175_231 Bus2=175_252 phases=3 Linecode=2c_.04 Length=0.64076 Units=m
New Line.LINE175_252 Bus1=175_232 Bus2=175_253 phases=3 Linecode=4_XC Length=0.085275 Units=m
New Line.LINE175_253 Bus1=175_233 Bus2=175_254 phases=3 Linecode=4c_.25 Length=6.2238 Units=m
New Line.LINE175_254 Bus1=175_234 Bus2=175_255 phases=3 Linecode=4c_.25 Length=0.053 Units=m
New Line.LINE175_255 Bus1=175_235 Bus2=175_256 phases=3 Linecode=2c_.04 Length=0.10211 Units=m
New Line.LINE175_256 Bus1=175_236 Bus2=175_257 phases=3 Linecode=2c_.04 Length=0.099861 Units=m
New Line.LINE175_257 Bus1=175_238 Bus2=175_258 phases=3 Linecode=4c_.25 Length=3.8945 Units=m
New Line.LINE175_258 Bus1=175_239 Bus2=175_259 phases=3 Linecode=4c_.25 Length=0.074999 Units=m
New Line.LINE175_259 Bus1=175_240 Bus2=175_260 phases=3 Linecode=2c_.04 Length=0.13718 Units=m
New Line.LINE175_260 Bus1=175_241 Bus2=175_261 phases=3 Linecode=2c_.04 Length=0.14839 Units=m
New Line.LINE175_261 Bus1=175_242 Bus2=175_262 phases=3 Linecode=2c_.007 Length=0.21154 Units=m
New Line.LINE175_262 Bus1=175_243 Bus2=175_263 phases=3 Linecode=4_PC Length=0.069288 Units=m
New Line.LINE175_263 Bus1=175_244 Bus2=175_264 phases=3 Linecode=4_XSC Length=0.07433 Units=m
New Line.LINE175_264 Bus1=175_245 Bus2=175_265 phases=3 Linecode=2c_.04 Length=0.10791 Units=m
New Line.LINE175_265 Bus1=175_246 Bus2=175_266 phases=3 Linecode=2c_.04 Length=0.84051 Units=m
New Line.LINE175_266 Bus1=175_247 Bus2=175_267 phases=3 Linecode=4c_.25 Length=0.043602 Units=m
New Line.LINE175_267 Bus1=175_248 Bus2=175_268 phases=3 Linecode=2c_.04 Length=0.4659 Units=m
New Line.LINE175_268 Bus1=175_249 Bus2=175_269 phases=3 Linecode=2c_.007 Length=0.071169 Units=m
New Line.LINE175_269 Bus1=175_250 Bus2=175_270 phases=3 Linecode=2c_.04 Length=11.2215 Units=m
New Line.LINE175_270 Bus1=175_250 Bus2=175_271 phases=3 Linecode=4c_.12 Length=15.6927 Units=m
New Line.LINE175_271 Bus1=175_251 Bus2=175_272 phases=3 Linecode=2c_.04 Length=0.17998 Units=m
New Line.LINE175_272 Bus1=175_252 Bus2=175_273 phases=3 Linecode=2c_.04 Length=0.24802 Units=m
New Line.LINE175_273 Bus1=175_253 Bus2=175_274 phases=3 Linecode=4_XC Length=0.085475 Units=m
New Line.LINE175_274 Bus1=175_254 Bus2=175_275 phases=3 Linecode=4c_.25 Length=1.6263 Units=m
New Line.LINE175_275 Bus1=175_254 Bus2=175_276 phases=3 Linecode=2c_.04 Length=7.3711 Units=m
New Line.LINE175_276 Bus1=175_255 Bus2=175_277 phases=3 Linecode=4c_.25 Length=0.054129 Units=m
New Line.LINE175_277 Bus1=175_256 Bus2=175_278 phases=3 Linecode=2c_.04 Length=0.11597 Units=m
New Line.LINE175_278 Bus1=175_257 Bus2=175_279 phases=3 Linecode=2c_.04 Length=0.12782 Units=m
New Line.LINE175_279 Bus1=175_258 Bus2=175_280 phases=3 Linecode=4c_.25 Length=2.8031 Units=m
New Line.LINE175_280 Bus1=175_259 Bus2=175_281 phases=3 Linecode=4c_.25 Length=0.097514 Units=m
New Line.LINE175_281 Bus1=175_260 Bus2=175_282 phases=3 Linecode=2c_.04 Length=0.13319 Units=m
New Line.LINE175_282 Bus1=175_261 Bus2=175_283 phases=3 Linecode=2c_.04 Length=0.23907 Units=m
New Line.LINE175_283 Bus1=175_262 Bus2=175_284 phases=3 Linecode=2c_.007 Length=0.42354 Units=m
New Line.LINE175_284 Bus1=175_263 Bus2=175_285 phases=3 Linecode=4_PC Length=0.25041 Units=m
New Line.LINE175_285 Bus1=175_264 Bus2=175_286 phases=3 Linecode=4_XSC Length=0.074726 Units=m
New Line.LINE175_286 Bus1=175_265 Bus2=175_287 phases=3 Linecode=2c_.04 Length=0.071386 Units=m
New Line.LINE175_287 Bus1=175_266 Bus2=175_288 phases=3 Linecode=2c_.04 Length=6.9097 Units=m
New Line.LINE175_288 Bus1=175_266 Bus2=175_289 phases=3 Linecode=2c_.04 Length=0.80698 Units=m
New Line.LINE175_289 Bus1=175_267 Bus2=175_290 phases=3 Linecode=4c_.25 Length=0.043184 Units=m
New Line.LINE175_290 Bus1=175_268 Bus2=175_291 phases=3 Linecode=2c_.04 Length=1.0584 Units=m
New Line.LINE175_291 Bus1=175_269 Bus2=175_292 phases=3 Linecode=2c_.007 Length=0.070858 Units=m
New Line.LINE175_292 Bus1=175_270 Bus2=175_293 phases=3 Linecode=2c_.04 Length=0.23468 Units=m
New Line.LINE175_293 Bus1=175_271 Bus2=175_294 phases=3 Linecode=2c_.04 Length=11.2376 Units=m
New Line.LINE175_294 Bus1=175_271 Bus2=175_295 phases=3 Linecode=4c_.12 Length=16.5942 Units=m
New Line.LINE175_295 Bus1=175_272 Bus2=175_296 phases=3 Linecode=2c_.04 Length=0.30924 Units=m
New Line.LINE175_296 Bus1=175_273 Bus2=175_297 phases=3 Linecode=2c_.04 Length=0.28399 Units=m
New Line.LINE175_297 Bus1=175_274 Bus2=175_298 phases=3 Linecode=4_XC Length=0.08477 Units=m
New Line.LINE175_298 Bus1=175_275 Bus2=175_299 phases=3 Linecode=4c_.25 Length=10.7835 Units=m
New Line.LINE175_299 Bus1=175_276 Bus2=175_300 phases=3 Linecode=2c_.04 Length=3.7366 Units=m
New Line.LINE175_300 Bus1=175_276 Bus2=175_301 phases=3 Linecode=2c_.04 Length=3.4111 Units=m
New Line.LINE175_301 Bus1=175_277 Bus2=175_302 phases=3 Linecode=4c_.25 Length=0.052555 Units=m
New Line.LINE175_302 Bus1=175_278 Bus2=175_303 phases=3 Linecode=2c_.04 Length=0.093521 Units=m
New Line.LINE175_303 Bus1=175_279 Bus2=175_304 phases=3 Linecode=2c_.04 Length=0.18642 Units=m
New Line.LINE175_304 Bus1=175_280 Bus2=175_305 phases=3 Linecode=4c_.25 Length=1.3411 Units=m
New Line.LINE175_305 Bus1=175_280 Bus2=175_306 phases=3 Linecode=2c_.007 Length=0.20482 Units=m
New Line.LINE175_306 Bus1=175_281 Bus2=175_307 phases=3 Linecode=4c_.25 Length=0.11927 Units=m
New Line.LINE175_307 Bus1=175_282 Bus2=175_308 phases=3 Linecode=2c_.04 Length=0.19069 Units=m
New Line.LINE175_308 Bus1=175_283 Bus2=175_309 phases=3 Linecode=2c_.04 Length=0.26568 Units=m
New Line.LINE175_309 Bus1=175_284 Bus2=175_310 phases=3 Linecode=4_XSC Length=0.31069 Units=m
New Line.LINE175_310 Bus1=175_285 Bus2=175_311 phases=3 Linecode=4_PC Length=0.62693 Units=m
New Line.LINE175_311 Bus1=175_286 Bus2=175_312 phases=3 Linecode=4_XSC Length=0.074249 Units=m
New Line.LINE175_312 Bus1=175_287 Bus2=175_313 phases=3 Linecode=2c_.04 Length=0.064661 Units=m
New Line.LINE175_313 Bus1=175_289 Bus2=175_314 phases=3 Linecode=2c_.04 Length=0.23209 Units=m
New Line.LINE175_314 Bus1=175_290 Bus2=175_315 phases=3 Linecode=4c_.25 Length=0.04391 Units=m
New Line.LINE175_315 Bus1=175_291 Bus2=175_316 phases=3 Linecode=2c_.04 Length=2.5119 Units=m
New Line.LINE175_316 Bus1=175_292 Bus2=175_317 phases=3 Linecode=2c_.007 Length=0.071007 Units=m