New Line.LINE175_40 Bus1=175_39 Bus2=175_41 phases=3 Linecode=4c_.25 Length=10.8805 Units=m
New Line.LINE175_47 Bus1=175_45 Bus2=175_48 phases=3 Linecode=4c_.25 Length=0.39015 Units=m
New Line.LINE175_50 Bus1=175_47 Bus2=175_51 phases=3 Linecode=2c_.04 Length=12.2012 Units=m
New Line.LINE175_51 Bus1=175_47 Bus2=175_52 phases=3 Linecode=4c_.25 Length=2.3413 Units=m
New Line.LINE175_77 Bus1=175_72 Bus2=175_78 phases=3 Linecode=2c_.04 Length=4.538 Units=m
New Line.LINE175_95 Bus1=175_89 Bus2=175_96 phases=3 Linecode=2c_.04 Length=6.8722 Units=m
New Line.LINE175_111 Bus1=175_104 Bus2=175_112 phases=3 Linecode=2c_.04 Length=5.5946 Units=m
New Line.LINE175_117 Bus1=175_108 Bus2=175_118 phases=3 Linecode=4c_.25 Length=4.9378 Units=m
New Line.LINE175_126 Bus1=175_118 Bus2=175_127 phases=3 Linecode=2c_.04 Length=7.5904 Units=m
New Line.LINE175_127 Bus1=175_118 Bus2=175_128 phases=3 Linecode=4c_.25 Length=1.772 Units=m
New Line.LINE175_138 Bus1=175_128 Bus2=175_139 phases=3 Linecode=25_SAC_XC Length=4.6884 Units=m
New Line.LINE175_152 Bus1=175_142 Bus2=175_153 phases=3 Linecode=4c_.25 Length=18.6396 Units=m
New Line.LINE175_158 Bus1=175_147 Bus2=175_159 phases=3 Linecode=2c_.04 Length=4.8641 Units=m
New Line.LINE175_164 Bus1=175_151 Bus2=175_165 phases=3 Linecode=4c_.25 Length=22.3097 Units=m
New Line.LINE175_166 Bus1=175_153 Bus2=175_167 phases=3 Linecode=4c_.25 Length=18.2891 Units=m
New Line.LINE175_181 Bus1=175_167 Bus2=175_182 phases=3 Linecode=4c_.25 Length=10.0969 Units=m
New Line.LINE175_195 Bus1=175_181 Bus2=175_196 phases=3 Linecode=2c_.04 Length=5.1097 Units=m
New Line.LINE175_198 Bus1=175_182 Bus2=175_199 phases=3 Linecode=2c_.04 Length=4.3768 Units=m
New Line.LINE175_207 Bus1=175_191 Bus2=175_208 phases=3 Linecode=2c_.04 Length=5.5803 Units=m
New Line.LINE175_227 Bus1=175_207 Bus2=175_228 phases=3 Linecode=4c_.12 Length=10.6748 Units=m
New Line.LINE175_229 Bus1=175_210 Bus2=175_230 phases=3 Linecode=2c_.04 Length=5.9129 Units=m
New Line.LINE175_249 Bus1=175_228 Bus2=175_250 phases=3 Linecode=4c_.12 Length=6.0347 Units=m
New Line.LINE175_270 Bus1=175_250 Bus2=175_271 phases=3 Linecode=4c_.12 Length=15.6927 Units=m
New Line.LINE175_275 Bus1=175_254 Bus2=175_276 phases=3 Linecode=2c_.04 Length=7.3711 Units=m
New Line.LINE175_287 Bus1=175_266 Bus2=175_288 phases=3 Linecode=2c_.04 Length=6.9097 Units=m
New Line.LINE175_294 Bus1=175_271 Bus2=175_295 phases=3 Linecode=4c_.12 Length=16.5942 Units=m
New Line.LINE175_304 Bus1=175_280 Bus2=175_305 phases=3 Linecode=4c_.25 Length=1.3411 Units=m
New Line.LINE175_349 Bus1=175_325 Bus2=175_350 phases=3 Linecode=4c_.25 Length=10.117 Units=m
New Line.LINE175_360 Bus1=175_336 Bus2=175_361 phases=3 Linecode=2c_.04 Length=4.844 Units=m
New Line.LINE175_377 Bus1=175_350 Bus2=175_378 phases=3 Linecode=4c_.25 Length=7.7136 Units=m
New Line.LINE175_381 Bus1=175_354 Bus2=175_382 phases=3 Linecode=2c_.04 Length=4.8891 Units=m
New Line.LINE175_383 Bus1=175_355 Bus2=175_384 phases=3 Linecode=2c_.04 Length=5.8829 Units=m
New Line.LINE175_387 Bus1=175_357 Bus2=175_388 phases=3 Linecode=4c_.25 Length=12.9632 Units=m
New Line.LINE175_390 Bus1=175_360 Bus2=175_391 phases=3 Linecode=2c_.04 Length=4.6643 Units=m
New Line.LINE175_395 Bus1=175_365 Bus2=175_396 phases=3 Linecode=2c_.04 Length=6.0097 Units=m
New Line.LINE175_400 Bus1=175_369 Bus2=175_401 phases=3 Linecode=2c_.04 Length=3.0779 Units=m
New Line.LINE175_410 Bus1=175_378 Bus2=175_411 phases=3 Linecode=4c_.25 Length=21.8352 Units=m
New Line.LINE175_420 Bus1=175_388 Bus2=175_421 phases=3 Linecode=2c_.04 Length=4.2977 Units=m
New Line.LINE175_430 Bus1=175_403 Bus2=175_431 phases=3 Linecode=2c_.04 Length=1.8331 Units=m
New Line.LINE175_439 Bus1=175_411 Bus2=175_440 phases=3 Linecode=2c_.04 Length=8.3802 Units=m
New Line.LINE175_440 Bus1=175_411 Bus2=175_441 phases=3 Linecode=4c_.25 Length=1.3713 Units=m
New Line.LINE175_464 Bus1=175_436 Bus2=175_465 phases=3 Linecode=2c_.04 Length=5.3738 Units=m
New Line.LINE175_474 Bus1=175_443 Bus2=175_475 phases=3 Linecode=2c_.04 Length=5.2554 Units=m
New Line.LINE175_483 Bus1=175_450 Bus2=175_484 phases=3 Linecode=4c_.25 Length=7.0024 Units=m
New Line.LINE175_526 Bus1=175_495 Bus2=175_527 phases=3 Linecode=2c_.04 Length=3.7675 Units=m
New Line.LINE175_538 Bus1=175_506 Bus2=175_539 phases=3 Linecode=4c_.25 Length=1.0897 Units=m
New Line.LINE175_541 Bus1=175_509 Bus2=175_542 phases=3 Linecode=2c_.04 Length=6.0055 Units=m
New Line.LINE175_547 Bus1=175_513 Bus2=175_548 phases=3 Linecode=3c_185_SAC_XC Length=11.5422 Units=m
New Line.LINE175_595 Bus1=175_563 Bus2=175_596 phases=3 Linecode=4c_.12 Length=1.1303 Units=m
New Line.LINE175_650 Bus1=175_614 Bus2=175_651 phases=3 Linecode=3c_185_SAC_XC Length=2.358 Units=m
New Line.LINE175_654 Bus1=175_619 Bus2=175_655 phases=3 Linecode=2c_.04 Length=3.8275 Units=m
New Line.LINE175_656 Bus1=175_620 Bus2=175_657 phases=3 Linecode=2c_.04 Length=3.4596 Units=m
New Line.LINE175_671 Bus1=175_636 Bus2=175_672 phases=3 Linecode=2c_.04 Length=4.7343 Units=m
New Line.LINE175_695 Bus1=175_660 Bus2=175_696 phases=3 Linecode=2c_.04 Length=4.1868 Units=m
New Line.LINE175_824 Bus1=175_795 Bus2=175_825 phases=3 Linecode=2c_.04 Length=4.4924 Units=m
New Line.LINE175_896 Bus1=175_874 Bus2=175_897 phases=3 Linecode=.04_LTC Length=4.884 Units=m
New Line.LINE175_897 Bus1=175_874 Bus2=175_898 phases=3 Linecode=4c_.06 Length=1.7526 Units=m
New Line.LINE175_924 Bus1=175_900 Bus2=175_925 phases=3 Linecode=2c_.04 Length=4.5433 Units=m
New Line.LINE175_949 Bus1=175_924 Bus2=175_950 phases=3 Linecode=2c_.04 Length=3.9736 Units=m
New Line.LINE175_978 Bus1=175_954 Bus2=175_979 phases=3 Linecode=2c_.04 Length=5.6149 Units=m
New Line.LINE175_1086 Bus1=175_1068 Bus2=175_1087 phases=3 Linecode=2c_.04 Length=6.3374 Units=m
New Line.LINE175_1100 Bus1=175_1081 Bus2=175_1101 phases=3 Linecode=2c_.04 Length=4.0857 Units=m
New Line.LINE175_1143 Bus1=175_1126 Bus2=175_1144 phases=3 Linecode=2c_.04 Length=4.5201 Units=m
New Line.LINE175_1145 Bus1=175_1127 Bus2=175_1146 phases=3 Linecode=2c_.04 Length=4.1388 Units=m
New Line.LINE175_1182 Bus1=175_1164 Bus2=175_1183 phases=3 Linecode=.04_LTC Length=3.6508 Units=m
New Line.LINE175_1187 Bus1=175_1169 Bus2=175_1188 phases=3 Linecode=3c_95_SAC_XC Length=0.80416 Units=m
New Line.LINE175_1210 Bus1=175_1195 Bus2=175_1211 phases=3 Linecode=3c_95_SAC_XC Length=5.6944 Units=m
New Line.LINE175_1217 Bus1=175_1201 Bus2=175_1218 phases=3 Linecode=.04_LTC Length=5.6446 Units=m
New Line.LINE175_1229 Bus1=175_1211 Bus2=175_1230 phases=3 Linecode=3c_95_SAC_XC Length=4.0158 Units=m
New Line.LINE175_1232 Bus1=175_1214 Bus2=175_1233 phases=3 Linecode=2c_.04 Length=5.5568 Units=m
New Line.LINE175_1247 Bus1=175_1230 Bus2=175_1248 phases=3 Linecode=3c_95_SAC_XC Length=3.903 Units=m
New Line.LINE175_1253 Bus1=175_1235 Bus2=175_1254 phases=3 Linecode=2c_.04 Length=4.7978 Units=m
New Line.LINE175_1254 Bus1=175_1235 Bus2=175_1255 phases=3 Linecode=2c_.04 Length=5.3641 Units=m
New Line.LINE175_1255 Bus1=175_1236 Bus2=175_1256 phases=3 Linecode=2c_.04 Length=4.0648 Units=m
New Line.LINE175_1256 Bus1=175_1236 Bus2=175_1257 phases=3 Linecode=2c_.04 Length=5.8221 Units=m
New Line.LINE175_1275 Bus1=175_1255 Bus2=175_1276 phases=3 Linecode=2c_.04 Length=5.031 Units=m
New Line.LINE175_1277 Bus1=175_1257 Bus2=175_1278 phases=3 Linecode=2c_.04 Length=4.9748 Units=m
New Line.LINE175_1300 Bus1=175_1280 Bus2=175_1301 phases=3 Linecode=.04_LTC Length=4.5175 Units=m
New Line.LINE175_1313 Bus1=175_1292 Bus2=175_1314 phases=3 Linecode=3c_95_SAC_XC Length=0.83081 Units=m
New Line.LINE175_1316 Bus1=175_1294 Bus2=175_1317 phases=3 Linecode=3c_185_SAC_XC Length=4.4327 Units=m
New Line.LINE175_1366 Bus1=175_1344 Bus2=175_1367 phases=3 Linecode=2c_.04 Length=5.763 Units=m
New Line.LINE175_1376 Bus1=175_1353 Bus2=175_1377 phases=3 Linecode=3c_95_SAC_XC Length=6.7261 Units=m
New Line.LINE175_1400 Bus1=175_1377 Bus2=175_1401 phases=3 Linecode=3c_95_SAC_XC Length=2.0068 Units=m
New Line.LINE175_1427 Bus1=175_1401 Bus2=175_1428 phases=3 Linecode=3c_95_SAC_XC Length=2.9227 Units=m
New Line.LINE175_1449 Bus1=175_1423 Bus2=175_1450 phases=3 Linecode=.04_LTC Length=3.4203 Units=m
New Line.LINE175_1493 Bus1=175_1469 Bus2=175_1494 phases=3 Linecode=3c_185_SAC_XC Length=4.3065 Units=m
New Line.LINE175_1515 Bus1=175_1494 Bus2=175_1516 phases=3 Linecode=3c_185_SAC_XC Length=4.2019 Units=m
New Line.LINE175_1516 Bus1=175_1495 Bus2=175_1517 phases=3 Linecode=.04_XSC Length=3.8532 Units=m
New Line.LINE175_1539 Bus1=175_1516 Bus2=175_1540 phases=3 Linecode=3c_185_SAC_XC Length=2.6075 Units=m
New Line.LINE175_1560 Bus1=175_1540 Bus2=175_1561 phases=3 Linecode=3c_185_SAC_XC Length=0.85854 Units=m
New Line.LINE175_1582 Bus1=175_1561 Bus2=175_1583 phases=3 Linecode=3c_185_SAC_XC Length=8.5369 Units=m
New Line.LINE175_1590 Bus1=175_1568 Bus2=175_1591 phases=3 Linecode=3c_95_SAC_XC Length=1.7056 Units=m
New Line.LINE175_1619 Bus1=175_1594 Bus2=175_1620 phases=3 Linecode=35_SAC_PC Length=5.1875 Units=m
New Line.LINE175_1620 Bus1=175_1594 Bus2=175_1621 phases=3 Linecode=35_SAC_PC Length=3.2891 Units=m
New Line.LINE175_1636 Bus1=175_1610 Bus2=175_1637 phases=3 Linecode=2c_.04 Length=5.0182 Units=m
New Line.LINE175_1697 Bus1=175_1675 Bus2=175_1698 phases=3 Linecode=3c_95_SAC_XC Length=2.5004 Units=m
New Line.LINE175_1718 Bus1=175_1698 Bus2=175_1719 phases=3 Linecode=3c_95_SAC_XC Length=0.7664 Units=m
New Line.LINE175_1740 Bus1=175_1719 Bus2=175_1741 phases=3 Linecode=3c_95_SAC_XC Length=8.2193 Units=m
New Line.LINE175_1762 Bus1=175_1741 Bus2=175_1763 phases=3 Linecode=3c_95_SAC_XC Length=6.2107 Units=m
New Line.LINE175_1834 Bus1=175_1814 Bus2=175_1835 phases=3 Linecode=25_SAC_XC Length=5.8966 Units=m
New Line.LINE175_1872 Bus1=175_1853 Bus2=175_1873 phases=3 Linecode=3c_95_SAC_XC Length=1.7996 Units=m
New Line.LINE175_1891 Bus1=175_1873 Bus2=175_1892 phases=3 Linecode=3c_95_SAC_XC Length=2.331 Units=m
New Line.LINE175_1895 Bus1=175_1876 Bus2=175_1896 phases=3 Linecode=25_SAC_XC Length=7.8469 Units=m
New Line.LINE175_1909 Bus1=175_1892 Bus2=175_1910 phases=3 Linecode=3c_95_SAC_XC Length=7.5263 Units=m
New Line.LINE175_1930 Bus1=175_1910 Bus2=175_1931 phases=3 Linecode=3c_95_SAC_XC Length=3.4303 Units=m
New Line.LINE175_1951 Bus1=175_1931 Bus2=175_1952 phases=3 Linecode=3c_95_SAC_XC Length=8.0689 Units=m
New Line.LINE175_1972 Bus1=175_1952 Bus2=175_1973 phases=3 Linecode=3c_95_SAC_XC Length=1.1702 Units=m
New Line.LINE175_1992 Bus1=175_1973 Bus2=175_1993 phases=3 Linecode=3c_95_SAC_XC Length=2.9214 Units=m
New Line.LINE175_2012 Bus1=175_1993 Bus2=175_2013 phases=3 Linecode=3c_95_SAC_XC Length=1.8222 Units=m
New Line.LINE175_2124 Bus1=175_2102 Bus2=175_2125 phases=3 Linecode=3c_95_SAC_XC Length=4.3646 Units=m
New Line.LINE175_2195 Bus1=175_2171 Bus2=175_2196 phases=3 Linecode=3c_95_SAC_XC Length=0.68049 Units=m
New Line.LINE175_2222 Bus1=175_2196 Bus2=175_2223 phases=3 Linecode=3c_95_SAC_XC Length=4.2274 Units=m
New Line.LINE175_2250 Bus1=175_2223 Bus2=175_2251 phases=3 Linecode=3c_95_SAC_XC Length=2.7155 Units=m
New Line.LINE175_2262 Bus1=175_2235 Bus2=175_2263 phases=3 Linecode=3c_95_SAC_XC Length=1.4598 Units=m
New Line.LINE175_2290 Bus1=175_2263 Bus2=175_2291 phases=3 Linecode=3c_95_SAC_XC Length=3.3282 Units=m
New Line.LINE175_2318 Bus1=175_2291 Bus2=175_2319 phases=3 Linecode=3c_95_SAC_XC Length=2.755 Units=m
New Line.LINE175_2333 Bus1=175_2308 Bus2=175_2334 phases=3 Linecode=3c_95_SAC_XC Length=1.9968 Units=m
New Line.LINE175_2345 Bus1=175_2319 Bus2=175_2346 phases=3 Linecode=3c_95_SAC_XC Length=3.197 Units=m
New Line.LINE175_2370 Bus1=175_2346 Bus2=175_2371 phases=3 Linecode=3c_95_SAC_XC Length=2.3836 Units=m
New Line.LINE175_2395 Bus1=175_2371 Bus2=175_2396 phases=3 Linecode=3c_95_SAC_XC Length=3.4374 Units=m
New Line.LINE175_2506 Bus1=175_2480 Bus2=175_2507 phases=3 Linecode=3c_95_SAC_XC Length=2.4265 Units=m
New Line.LINE175_2522 Bus1=175_2497 Bus2=175_2523 phases=3 Linecode=3c_95_SAC_XC Length=2.0401 Units=m
New Line.LINE175_2549 Bus1=175_2523 Bus2=175_2550 phases=3 Linecode=3c_95_SAC_XC Length=1.1601 Units=m
New Line.LINE175_2580 Bus1=175_2561 Bus2=175_2581 phases=3 Linecode=3c_95_SAC_XC Length=8.4954 Units=m
New Line.LINE175_2599 Bus1=175_2581 Bus2=175_2600 phases=3 Linecode=25_SAC_XC Length=4.5651 Units=m
New Line.LINE175_Cmpd_0 Bus1=175_142 Bus2=175_222 phases=3 Linecode=4c_.25 Length=0.85965 Units=m
New Line.LINE175_Cmpd_1 Bus1=175_1574 Bus2=175_1898 phases=3 Linecode=35_SAC_PC Length=19.82341 Units=m
New Line.LINE175_Cmpd_2 Bus1=175_2067 Bus2=175_2235 phases=3 Linecode=3c_95_SAC_XC Length=5.69162 Units=m
New Line.LINE175_Cmpd_3 Bus1=175_2196 Bus2=175_2744 phases=3 Linecode=35_SAC_PC Length=27.227921 Units=m
New Line.LINE175_Cmpd_4 Bus1=175_167 Bus2=175_624 phases=3 Linecode=2c_.007 Length=4.330667 Units=m
New Line.LINE175_Cmpd_5 Bus1=175_1591 Bus2=175_1690 phases=3 Linecode=3c_95_SAC_XC Length=0.87093 Units=m
New Line.LINE175_Cmpd_6 Bus1=175_1233 Bus2=175_1344 phases=3 Linecode=2c_.04 Length=2.94719 Units=m
New Line.LINE175_Cmpd_7 Bus1=175_127 Bus2=175_210 phases=3 Linecode=2c_.04 Length=7.79695 Units=m
New Line.LINE175_Cmpd_8 Bus1=175_365 Bus2=175_766 phases=3 Linecode=2c_.04 Length=14.31898 Units=m
New Line.LINE175_Cmpd_9 Bus1=175_305 Bus2=175_513 phases=3 Linecode=3c_185_SAC_XC Length=14.49826 Units=m
New Line.LINE175_Cmpd_10 Bus1=175_898 Bus2=175_1125 phases=3 Linecode=4_PC Length=0.968275 Units=m
New Line.LINE175_Cmpd_11 Bus1=175_1463 Bus2=175_1857 phases=3 Linecode=35_SAC_PC Length=28.27173 Units=m
New Line.LINE175_Cmpd_12 Bus1=175_585 Bus2=175_944 phases=3 Linecode=4c_.06 Length=15.86855 Units=m
New Line.LINE175_Cmpd_13 Bus1=175_194 Bus2=175_1054 phases=3 Linecode=4c_.25 Length=4.256691 Units=m
New Line.LINE175_Cmpd_14 Bus1=175_1993 Bus2=175_2541 phases=3 Linecode=35_SAC_PC Length=23.285604 Units=m
New Line.LINE175_Cmpd_15 Bus1=175_1248 Bus2=175_1459 phases=3 Linecode=35_SAC_PC Length=10.70443 Units=m
New Line.LINE175_Cmpd_16 Bus1=175_548 Bus2=175_888 phases=3 Linecode=35_SAC_PC Length=13.15167 Units=m
New Line.LINE175_Cmpd_17 Bus1=175_1561 Bus2=175_1742 phases=3 Linecode=35_SAC_PC Length=10.18527 Units=m
New Line.LINE175_Cmpd_18 Bus1=175_1905 Bus2=175_2349 phases=3 Linecode=35_SAC_PC Length=29.624 Units=m
New Line.LINE175_Cmpd_19 Bus1=175_1763 Bus2=175_2551 phases=3 Linecode=35_SAC_PC Length=33.530847 Units=m
New Line.LINE175_Cmpd_20 Bus1=175_108 Bus2=175_207 phases=3 Linecode=4c_.12 Length=23.03866 Units=m
New Line.LINE175_Cmpd_21 Bus1=175_52 Bus2=175_459 phases=3 Linecode=4c_.25 Length=6.526973 Units=m
New Line.LINE175_Cmpd_22 Bus1=175_1249 Bus2=175_1532 phases=3 Linecode=35_SAC_PC Length=9.71215 Units=m
New Line.LINE175_Cmpd_23 Bus1=175_614 Bus2=175_1095 phases=3 Linecode=35_SAC_PC Length=11.97486 Units=m
New Line.LINE175_Cmpd_24 Bus1=175_1127 Bus2=175_1425 phases=3 Linecode=2c_.04 Length=26.82684 Units=m
New Line.LINE175_Cmpd_25 Bus1=175_280 Bus2=175_621 phases=3 Linecode=2c_.007 Length=2.42987 Units=m
New Line.LINE175_Cmpd_26 Bus1=175_870 Bus2=175_1194 phases=3 Linecode=35_SAC_PC Length=13.21552 Units=m
New Line.LINE175_Cmpd_27 Bus1=175_2319 Bus2=175_2491 phases=3 Linecode=3c_95_SAC_XC Length=8.4026 Units=m
New Line.LINE175_Cmpd_28 Bus1=175_1910 Bus2=175_2232 phases=3 Linecode=35_SAC_PC Length=12.92958 Units=m
New Line.LINE175_Cmpd_29 Bus1=175_1 Bus2=175_39 phases=3 Linecode=3c_300_SAC_XC Length=47.205057 Units=m
New Line.LINE175_Cmpd_30 Bus1=175_1211 Bus2=175_1483 phases=3 Linecode=35_SAC_PC Length=10.39238 Units=m
New Line.LINE175_Cmpd_31 Bus1=175_1495 Bus2=175_1765 phases=3 Linecode=2c_.04 Length=21.7799 Units=m
New Line.LINE175_Cmpd_32 Bus1=175_2196 Bus2=175_2696 phases=3 Linecode=35_SAC_PC Length=20.291994 Units=m
New Line.LINE175_Cmpd_33 Bus1=175_1993 Bus2=175_2412 phases=3 Linecode=3c_95_SAC_XC Length=15.23026 Units=m
New Line.LINE175_Cmpd_34 Bus1=175_882 Bus2=175_1190 phases=3 Linecode=2c_.0225 Length=6.7369 Units=m
New Line.LINE175_Cmpd_35 Bus1=175_2308 Bus2=175_2587 phases=3 Linecode=35_SAC_PC Length=13.08386 Units=m
New Line.LINE175_Cmpd_36 Bus1=175_1201 Bus2=175_1890 phases=3 Linecode=.04_LTC Length=23.1639 Units=m
New Line.LINE175_Cmpd_37 Bus1=175_897 Bus2=175_1280 phases=3 Linecode=.04_LTC Length=9.666352 Units=m
New Line.LINE175_Cmpd_38 Bus1=175_1280 Bus2=175_1423 phases=3 Linecode=.04_LTC Length=8.15287 Units=m
New Line.LINE175_Cmpd_39 Bus1=175_77 Bus2=175_395 phases=3 Linecode=4_XSC Length=3.435265 Units=m
New Line.LINE175_Cmpd_40 Bus1=175_295 Bus2=175_495 phases=3 Linecode=2c_.04 Length=12.5757 Units=m
New Line.LINE175_Cmpd_41 Bus1=175_1230 Bus2=175_1405 phases=3 Linecode=35_SAC_PC Length=9.45693 Units=m
New Line.LINE175_Cmpd_42 Bus1=175_1905 Bus2=175_2474 phases=3 Linecode=35_SAC_PC Length=23.00992 Units=m
New Line.LINE175_Cmpd_43 Bus1=175_1927 Bus2=175_2100 phases=3 Linecode=3c_185_SAC_XC Length=7.55726 Units=m
New Line.LINE175_Cmpd_44 Bus1=175_2581 Bus2=175_2617 phases=3 Linecode=3c_95_SAC_XC Length=12.8631 Units=m
New Line.LINE175_Cmpd_45 Bus1=175_2396 Bus2=175_2751 phases=3 Linecode=35_SAC_PC Length=25.11679 Units=m
New Line.LINE175_Cmpd_46 Bus1=175_2196 Bus2=175_2726 phases=3 Linecode=35_SAC_PC Length=22.266617 Units=m
New Line.LINE175_Cmpd_47 Bus1=175_2396 Bus2=175_2749 phases=3 Linecode=35_SAC_PC Length=20.0191 Units=m
New Line.LINE175_Cmpd_48 Bus1=175_2480 Bus2=175_2656 phases=3 Linecode=4_PSC Length=2.53649 Units=m
New Line.LINE175_Cmpd_49 Bus1=175_1741 Bus2=175_1963 phases=3 Linecode=35_SAC_PC Length=12.86728 Units=m
New Line.LINE175_Cmpd_50 Bus1=175_1931 Bus2=175_2180 phases=3 Linecode=35_SAC_PC Length=10.49734 Units=m
New Line.LINE175_Cmpd_51 Bus1=175_513 Bus2=175_683 phases=3 Linecode=3c_185_SAC_XC Length=1.18098 Units=m
New Line.LINE175_Cmpd_52 Bus1=175_1973 Bus2=175_2258 phases=3 Linecode=35_SAC_PC Length=9.96559 Units=m
New Line.LINE175_Cmpd_53 Bus1=175_574 Bus2=175_836 phases=3 Linecode=2c_.04 Length=8.51361 Units=m
New Line.LINE175_Cmpd_54 Bus1=175_1574 Bus2=175_2292 phases=3 Linecode=35_SAC_PC Length=33.898363 Units=m
New Line.LINE175_Cmpd_55 Bus1=175_1314 Bus2=175_1505 phases=3 Linecode=35_SAC_PC Length=9.98761 Units=m
New Line.LINE175_Cmpd_56 Bus1=175_1423 Bus2=175_2124 phases=3 Linecode=.04_LTC Length=23.91264 Units=m
New Line.LINE175_Cmpd_57 Bus1=175_2402 Bus2=175_2743 phases=3 Linecode=35_SAC_PC Length=40.229619 Units=m
New Line.LINE175_Cmpd_58 Bus1=175_1698 Bus2=175_2294 phases=3 Linecode=35_SAC_PC Length=26.813091 Units=m
New Line.LINE175_Cmpd_59 Bus1=175_104 Bus2=175_365 phases=3 Linecode=2c_.04 Length=8.411102 Units=m
New Line.LINE175_Cmpd_60 Bus1=175_1853 Bus2=175_2067 phases=3 Linecode=3c_95_SAC_XC Length=10.5242 Units=m
New Line.LINE175_Cmpd_61 Bus1=175_897 Bus2=175_1164 phases=3 Linecode=.04_LTC Length=7.949842 Units=m
New Line.LINE175_Cmpd_62 Bus1=175_1993 Bus2=175_2389 phases=3 Linecode=35_SAC_PC Length=24.55547 Units=m
New Line.LINE175_Cmpd_63 Bus1=175_1730 Bus2=175_2034 phases=3 Linecode=35_SAC_PC Length=14.5122 Units=m
New Line.LINE175_Cmpd_64 Bus1=175_1377 Bus2=175_1773 phases=3 Linecode=35_SAC_PC Length=18.91715 Units=m
New Line.LINE175_Cmpd_65 Bus1=175_1257 Bus2=175_1685 phases=3 Linecode=2c_.04 Length=19.421523 Units=m
New Line.LINE175_Cmpd_66 Bus1=175_378 Bus2=175_574 phases=3 Linecode=2c_.04 Length=8.80982 Units=m
New Line.LINE175_Cmpd_67 Bus1=175_1353 Bus2=175_1594 phases=3 Linecode=35_SAC_PC Length=11.19802 Units=m
New Line.LINE175_Cmpd_68 Bus1=175_1169 Bus2=175_1353 phases=3 Linecode=3c_95_SAC_XC Length=15.02942 Units=m
New Line.LINE175_Cmpd_69 Bus1=175_1702 Bus2=175_1927 phases=3 Linecode=3c_185_SAC_XC Length=12.79881 Units=m
New Line.LINE175_Cmpd_70 Bus1=175_191 Bus2=175_436 phases=3 Linecode=2c_.04 Length=7.43592 Units=m
New Line.LINE175_Cmpd_71 Bus1=175_2402 Bus2=175_2716 phases=3 Linecode=35_SAC_PC Length=22.069137 Units=m
New Line.LINE175_Cmpd_72 Bus1=175_266 Bus2=175_733 phases=3 Linecode=2c_.04 Length=14.398787 Units=m
New Line.LINE175_Cmpd_73 Bus1=175_1730 Bus2=175_1853 phases=3 Linecode=3c_95_SAC_XC Length=13.2001 Units=m
New Line.LINE175_Cmpd_74 Bus1=175_1255 Bus2=175_1520 phases=3 Linecode=2c_.04 Length=20.40358 Units=m
New Line.LINE175_Cmpd_75 Bus1=175_357 Bus2=175_549 phases=3 Linecode=4_XC Length=1.11763 Units=m
New Line.LINE175_Cmpd_76 Bus1=175_596 Bus2=175_1169 phases=3 Linecode=3c_95_SAC_XC Length=31.52153 Units=m
New Line.LINE175_Cmpd_77 Bus1=175_821 Bus2=175_972 phases=3 Linecode=4_XSC Length=1.391254 Units=m
New Line.LINE175_Cmpd_78 Bus1=175_1294 Bus2=175_1575 phases=3 Linecode=35_SAC_PC Length=12.72465 Units=m
New Line.LINE175_Cmpd_79 Bus1=175_1139 Bus2=175_1470 phases=3 Linecode=4_XSC Length=3.988733 Units=m
New Line.LINE175_Cmpd_80 Bus1=175_1344 Bus2=175_1610 phases=3 Linecode=2c_.04 Length=13.78841 Units=m
New Line.LINE175_Cmpd_81 Bus1=175_531 Bus2=175_802 phases=3 Linecode=2c_.04 Length=6.20342 Units=m
New Line.LINE175_Cmpd_82 Bus1=175_900 Bus2=175_1127 phases=3 Linecode=2c_.04 Length=8.85999 Units=m
New Line.LINE175_Cmpd_83 Bus1=175_506 Bus2=175_745 phases=3 Linecode=4c_.25 Length=9.10748 Units=m
New Line.LINE175_Cmpd_84 Bus1=175_41 Bus2=175_72 phases=3 Linecode=2c_.04 Length=14.08716 Units=m
New Line.LINE175_Cmpd_85 Bus1=175_2561 Bus2=175_2735 phases=3 Linecode=35_SAC_PC Length=13.926302 Units=m
New Line.LINE175_Cmpd_86 Bus1=175_1388 Bus2=175_1628 phases=3 Linecode=35_SAC_PC Length=13.68898 Units=m
New Line.LINE175_Cmpd_87 Bus1=175_463 Bus2=175_882 phases=3 Linecode=2c_.0225 Length=10.20128 Units=m
New Line.LINE175_Cmpd_88 Bus1=175_1719 Bus2=175_1983 phases=3 Linecode=3c_95_SAC_XC Length=1.903279 Units=m
New Line.LINE175_Cmpd_89 Bus1=175_441 Bus2=175_1112 phases=3 Linecode=4c_.25 Length=4.126506 Units=m
New Line.LINE175_Cmpd_90 Bus1=175_1540 Bus2=175_1680 phases=3 Linecode=3c_185_SAC_XC Length=1.48576 Units=m
New Line.LINE175_Cmpd_91 Bus1=175_636 Bus2=175_1111 phases=3 Linecode=2c_.04 Length=24.23368 Units=m
New Line.LINE175_Cmpd_92 Bus1=175_1195 Bus2=175_1249 phases=3 Linecode=3c_185_SAC_XC Length=1.23211 Units=m
New Line.LINE175_Cmpd_93 Bus1=175_2396 Bus2=175_2676 phases=3 Linecode=35_SAC_PC Length=15.88466 Units=m
New Line.LINE175_Cmpd_94 Bus1=175_2171 Bus2=175_2378 phases=3 Linecode=3c_95_SAC_XC Length=1.243418 Units=m
New Line.LINE175_Cmpd_95 Bus1=175_77 Bus2=175_142 phases=3 Linecode=4c_.25 Length=29.24772 Units=m
New Line.LINE175_Cmpd_96 Bus1=175_614 Bus2=175_1056 phases=3 Linecode=35_SAC_PC Length=12.20428 Units=m
New Line.LINE175_Cmpd_97 Bus1=175_620 Bus2=175_900 phases=3 Linecode=2c_.04 Length=6.64942 Units=m
New Line.LINE175_Cmpd_98 Bus1=175_325 Bus2=175_742 phases=3 Linecode=2c_.04 Length=18.23872 Units=m
New Line.LINE175_Cmpd_99 Bus1=175_870 Bus2=175_1228 phases=3 Linecode=35_SAC_PC Length=15.33918 Units=m
New Line.LINE175_Cmpd_100 Bus1=175_1698 Bus2=175_2397 phases=3 Linecode=35_SAC_PC Length=25.082054 Units=m
New Line.LINE175_Cmpd_101 Bus1=175_619 Bus2=175_924 phases=3 Linecode=2c_.04 Length=6.2693 Units=m
New Line.LINE175_Cmpd_102 Bus1=175_2085 Bus2=175_2542 phases=3 Linecode=3c_95_SAC_XC Length=21.5539 Units=m
New Line.LINE175_Cmpd_103 Bus1=175_795 Bus2=175_1068 phases=3 Linecode=2c_.04 Length=9.90923 Units=m
New Line.LINE175_Cmpd_104 Bus1=175_2402 Bus2=175_2715 phases=3 Linecode=35_SAC_PC Length=19.60103 Units=m
New Line.LINE175_Cmpd_105 Bus1=175_1188 Bus2=175_1479 phases=3 Linecode=3c_95_SAC_XC Length=10.20842 Units=m
New Line.LINE175_Cmpd_106 Bus1=175_2507 Bus2=175_2692 phases=3 Linecode=35_SAC_PC Length=13.409998 Units=m
New Line.LINE175_Cmpd_107 Bus1=175_1876 Bus2=175_1914 phases=3 Linecode=25_SAC_XC Length=8.49238 Units=m
New Line.LINE175_Cmpd_108 Bus1=175_276 Bus2=175_443 phases=3 Linecode=2c_.04 Length=5.98205 Units=m
New Line.LINE175_Cmpd_109 Bus1=175_355 Bus2=175_840 phases=3 Linecode=2c_.04 Length=13.52478 Units=m
New Line.LINE175_Cmpd_110 Bus1=175_1896 Bus2=175_1936 phases=3 Linecode=25_SAC_XC Length=7.16675 Units=m
New Line.LINE175_Cmpd_111 Bus1=175_1274 Bus2=175_1471 phases=3 Linecode=35_SAC_XSC Length=6.71992 Units=m
New Line.LINE175_Cmpd_112 Bus1=175_195 Bus2=175_355 phases=3 Linecode=2c_.04 Length=5.672701 Units=m
New Line.LINE175_Cmpd_113 Bus1=175_1469 Bus2=175_1677 phases=3 Linecode=35_SAC_PC Length=10.97117 Units=m
New Line.LINE175_Cmpd_114 Bus1=175_1610 Bus2=175_1928 phases=3 Linecode=2c_.04 Length=12.046166 Units=m
New Line.LINE175_Cmpd_115 Bus1=175_421 Bus2=175_620 phases=3 Linecode=2c_.04 Length=6.33056 Units=m
New Line.LINE175_Cmpd_116 Bus1=175_1388 Bus2=175_1676 phases=3 Linecode=35_SAC_PC Length=10.59747 Units=m
New Line.LINE175_Cmpd_117 Bus1=175_195 Bus2=175_354 phases=3 Linecode=2c_.04 Length=6.302291 Units=m
New Line.LINE175_Cmpd_118 Bus1=175_228 Bus2=175_797 phases=3 Linecode=2c_.007 Length=2.561412 Units=m
New Line.LINE175_Cmpd_119 Bus1=175_924 Bus2=175_1126 phases=3 Linecode=2c_.04 Length=8.97456 Units=m
New Line.LINE175_Cmpd_120 Bus1=175_596 Bus2=175_1004 phases=3 Linecode=2c_.0225 Length=30.5573 Units=m
New Line.LINE175_Cmpd_121 Bus1=175_1516 Bus2=175_1720 phases=3 Linecode=35_SAC_PC Length=10.77636 Units=m
New Line.LINE175_Cmpd_122 Bus1=175_2263 Bus2=175_2543 phases=3 Linecode=35_SAC_PC Length=11.758 Units=m
New Line.LINE175_Cmpd_123 Bus1=175_1814 Bus2=175_1854 phases=3 Linecode=25_SAC_XC Length=7.83485 Units=m
New Line.LINE175_Cmpd_124 Bus1=175_563 Bus2=175_855 phases=3 Linecode=4c_.12 Length=2.700479 Units=m
New Line.LINE175_Cmpd_125 Bus1=175_1095 Bus2=175_1226 phases=3 Linecode=35_SAC_PC Length=3.1606 Units=m
New Line.LINE175_Cmpd_126 Bus1=175_346 Bus2=175_463 phases=3 Linecode=4c_.12 Length=14.6333 Units=m
New Line.LINE175_Cmpd_127 Bus1=175_1501 Bus2=175_1831 phases=3 Linecode=35_SAC_PC Length=16.52754 Units=m
New Line.LINE175_Cmpd_128 Bus1=175_2170 Bus2=175_2554 phases=3 Linecode=35_SAC_PC Length=18.96319 Units=m
New Line.LINE175_Cmpd_129 Bus1=175_1763 Bus2=175_2295 phases=3 Linecode=35_SAC_PC Length=23.659438 Units=m
New Line.LINE175_Cmpd_130 Bus1=175_1401 Bus2=175_1669 phases=3 Linecode=35_SAC_PC Length=16.98421 Units=m
New Line.LINE175_Cmpd_131 Bus1=175_336 Bus2=175_660 phases=3 Linecode=2c_.04 Length=7.06655 Units=m
New Line.LINE175_Cmpd_132 Bus1=175_1494 Bus2=175_1699 phases=3 Linecode=35_SAC_PC Length=10.06611 Units=m
New Line.LINE175_Cmpd_133 Bus1=175_153 Bus2=175_311 phases=3 Linecode=4_PC Length=1.756065 Units=m
New Line.LINE175_Cmpd_134 Bus1=175_509 Bus2=175_962 phases=3 Linecode=2c_.04 Length=12.2556 Units=m
New Line.LINE175_Cmpd_135 Bus1=175_944 Bus2=175_1177 phases=3 Linecode=35_SAC_XC Length=8.6595 Units=m
New Line.LINE175_Cmpd_136 Bus1=175_1068 Bus2=175_1284 phases=3 Linecode=2c_.04 Length=19.14182 Units=m
New Line.LINE175_Cmpd_137 Bus1=175_1693 Bus2=175_1814 phases=3 Linecode=25_SAC_XC Length=6.2654 Units=m
New Line.LINE175_Cmpd_138 Bus1=175_2346 Bus2=175_2394 phases=3 Linecode=25_SAC_XC Length=18.5563 Units=m
New Line.LINE175_Cmpd_139 Bus1=175_1095 Bus2=175_1309 phases=3 Linecode=35_SAC_PC Length=19.37398 Units=m
New Line.LINE175_Cmpd_140 Bus1=175_1188 Bus2=175_1501 phases=3 Linecode=3c_95_SAC_XC Length=23.04294 Units=m
New Line.LINE175_Cmpd_141 Bus1=175_51 Bus2=175_104 phases=3 Linecode=2c_.04 Length=3.7365 Units=m
New Line.LINE175_Cmpd_142 Bus1=175_450 Bus2=175_725 phases=3 Linecode=2c_.007 Length=2.10225 Units=m
New Line.LINE175_Cmpd_143 Bus1=175_388 Bus2=175_450 phases=3 Linecode=4c_.25 Length=22.8164 Units=m
New Line.LINE175_Cmpd_144 Bus1=175_1873 Bus2=175_2260 phases=3 Linecode=35_SAC_PC Length=13.06798 Units=m
New Line.LINE175_Cmpd_145 Bus1=175_2125 Bus2=175_2436 phases=3 Linecode=35_SAC_PC Length=12.55506 Units=m
New Line.LINE175_Cmpd_146 Bus1=175_1568 Bus2=175_1811 phases=3 Linecode=35_SAC_PC Length=9.69247 Units=m
New Line.LINE175_Cmpd_147 Bus1=175_151 Bus2=175_324 phases=3 Linecode=4_XC Length=2.346508 Units=m
New Line.LINE175_Cmpd_148 Bus1=175_207 Bus2=175_316 phases=3 Linecode=2c_.04 Length=15.83998 Units=m
New Line.LINE175_Cmpd_149 Bus1=175_199 Bus2=175_360 phases=3 Linecode=2c_.04 Length=4.22762 Units=m
New Line.LINE175_Cmpd_150 Bus1=175_276 Bus2=175_509 phases=3 Linecode=2c_.04 Length=5.56752 Units=m
New Line.LINE175_Cmpd_151 Bus1=175_651 Bus2=175_870 phases=3 Linecode=35_SAC_PC Length=7.89227 Units=m
New Line.LINE175_Cmpd_152 Bus1=175_354 Bus2=175_865 phases=3 Linecode=2c_.04 Length=11.6468 Units=m
New Line.LINE175_Cmpd_153 Bus1=175_1317 Bus2=175_1534 phases=3 Linecode=4_PC Length=1.58046 Units=m
New Line.LINE175_Cmpd_154 Bus1=175_2223 Bus2=175_2605 phases=3 Linecode=35_SAC_PC Length=11.63297 Units=m
New Line.LINE175_Cmpd_155 Bus1=175_210 Bus2=175_500 phases=3 Linecode=2c_.04 Length=12.73937 Units=m
New Line.LINE175_Cmpd_156 Bus1=175_1583 Bus2=175_1702 phases=3 Linecode=3c_185_SAC_XC Length=7.53048 Units=m
New Line.LINE175_Cmpd_157 Bus1=175_2102 Bus2=175_2514 phases=3 Linecode=35_SAC_PC Length=13.091863 Units=m
New Line.LINE175_Cmpd_158 Bus1=175_2396 Bus2=175_2497 phases=3 Linecode=3c_95_SAC_XC Length=15.07741 Units=m
New Line.LINE175_Cmpd_159 Bus1=175_2013 Bus2=175_2337 phases=3 Linecode=35_SAC_PC Length=14.06501 Units=m
New Line.LINE175_Cmpd_160 Bus1=175_651 Bus2=175_1195 phases=3 Linecode=3c_185_SAC_XC Length=19.77234 Units=m
New Line.LINE175_Cmpd_161 Bus1=175_1292 Bus2=175_1460 phases=3 Linecode=3c_95_SAC_XC Length=9.23195 Units=m
New Line.LINE175_Cmpd_162 Bus1=175_614 Bus2=175_1171 phases=3 Linecode=35_SAC_PC Length=16.56836 Units=m
New Line.LINE175_Cmpd_163 Bus1=175_1126 Bus2=175_1397 phases=3 Linecode=2c_.04 Length=18.90997 Units=m
New Line.LINE175_Cmpd_164 Bus1=175_1101 Bus2=175_1235 phases=3 Linecode=2c_.04 Length=9.41385 Units=m
New Line.LINE175_Cmpd_165 Bus1=175_271 Bus2=175_403 phases=3 Linecode=2c_.04 Length=12.62904 Units=m
New Line.LINE175_Cmpd_166 Bus1=175_440 Bus2=175_571 phases=3 Linecode=2c_.04 Length=15.1955 Units=m
New Line.LINE175_Cmpd_167 Bus1=175_1675 Bus2=175_1879 phases=3 Linecode=35_SAC_PC Length=12.41131 Units=m
New Line.LINE175_Cmpd_168 Bus1=175_2067 Bus2=175_2391 phases=3 Linecode=35_SAC_PC Length=14.42078 Units=m
New Line.LINE175_Cmpd_169 Bus1=175_1384 Bus2=175_1693 phases=3 Linecode=3c_95_SAC_XC Length=10.21165 Units=m
New Line.LINE175_Cmpd_170 Bus1=175_443 Bus2=175_809 phases=3 Linecode=2c_.04 Length=13.79845 Units=m