New Line.LINE126 Bus1=11 Bus2=127 phases=3 Linecode=2c_16 Length=5.9049 Units=m
New Line.LINE135 Bus1=132 Bus2=136 phases=3 Linecode=2c_16 Length=5.7265 Units=m
New Line.LINE165 Bus1=159 Bus2=166 phases=3 Linecode=2c_16 Length=8.2583 Units=m
New Line.LINE172 Bus1=166 Bus2=173 phases=3 Linecode=2c_16 Length=4.0366 Units=m
New Line.LINE173 Bus1=166 Bus2=174 phases=3 Linecode=2c_16 Length=4.0366 Units=m
New Line.LINE1150 Bus1=1145 Bus2=1151 phases=3 Linecode=4c_.35 Length=3.5713 Units=m
New Line.LINE1157 Bus1=1151 Bus2=1158 phases=3 Linecode=4c_.35 Length=9.4713 Units=m
New Line.LINE1165 Bus1=1158 Bus2=1166 phases=3 Linecode=4c_.35 Length=3.2899 Units=m
New Line.LINE1174 Bus1=1166 Bus2=1175 phases=3 Linecode=2c_16 Length=4.2045 Units=m
New Line.LINE1183 Bus1=1175 Bus2=1184 phases=3 Linecode=2c_16 Length=0.45409 Units=m
New Line.LINE1192 Bus1=1184 Bus2=1193 phases=3 Linecode=2c_16 Length=0.43923 Units=m
New Line.LINE1202 Bus1=1193 Bus2=1203 phases=3 Linecode=2c_16 Length=0.35134 Units=m
New Line.LINE1206 Bus1=1196 Bus2=1207 phases=3 Linecode=4c_.35 Length=2.1371 Units=m
New Line.LINE1212 Bus1=1203 Bus2=1213 phases=3 Linecode=2c_16 Length=0.27987 Units=m
New Line.LINE1216 Bus1=1207 Bus2=1217 phases=3 Linecode=4c_.35 Length=3.8571 Units=m
New Line.LINE1221 Bus1=1213 Bus2=1222 phases=3 Linecode=2c_16 Length=0.59169 Units=m
New Line.LINE1225 Bus1=1217 Bus2=1226 phases=3 Linecode=4c_.35 Length=1.3772 Units=m
New Line.LINE1229 Bus1=1222 Bus2=1230 phases=3 Linecode=2c_16 Length=0.46597 Units=m
New Line.LINE1232 Bus1=1226 Bus2=1233 phases=3 Linecode=2c_16 Length=11.8949 Units=m
New Line.LINE1237 Bus1=1230 Bus2=1238 phases=3 Linecode=2c_16 Length=0.32322 Units=m
New Line.LINE1240 Bus1=1233 Bus2=1241 phases=3 Linecode=2c_16 Length=1.7274 Units=m
New Line.LINE1244 Bus1=1238 Bus2=1245 phases=3 Linecode=2c_16 Length=0.32245 Units=m
New Line.LINE1247 Bus1=1241 Bus2=1248 phases=3 Linecode=2c_16 Length=5.3022 Units=m
New Line.LINE1248 Bus1=1241 Bus2=1249 phases=3 Linecode=2c_16 Length=5.3022 Units=m
New Line.LINE1252 Bus1=1245 Bus2=1253 phases=3 Linecode=2c_16 Length=0.47173 Units=m
New Line.LINE1259 Bus1=1253 Bus2=1260 phases=3 Linecode=2c_16 Length=1.7742 Units=m
New Line.LINE1266 Bus1=1260 Bus2=1267 phases=3 Linecode=2c_16 Length=0.4141 Units=m
New Line.LINE1274 Bus1=1267 Bus2=1275 phases=3 Linecode=2c_16 Length=0.18971 Units=m
New Line.LINE1282 Bus1=1275 Bus2=1283 phases=3 Linecode=2c_16 Length=0.12472 Units=m
New Line.LINE1331 Bus1=1325 Bus2=1332 phases=3 Linecode=4c_.06 Length=6.6729 Units=m
New Line.LINE1483 Bus1=1475 Bus2=1484 phases=3 Linecode=2c_16 Length=10.2769 Units=m
New Line.LINE1538 Bus1=1530 Bus2=1539 phases=3 Linecode=2c_16 Length=5.5837 Units=m
New Line.LINE1594 Bus1=1587 Bus2=1595 phases=3 Linecode=4c_.06 Length=5.4142 Units=m
New Line.LINE1595 Bus1=1587 Bus2=1596 phases=3 Linecode=4c_.06 Length=0.64238 Units=m
New Line.LINE1603 Bus1=1595 Bus2=1604 phases=3 Linecode=4c_.06 Length=4.8283 Units=m
New Line.LINE1606 Bus1=1596 Bus2=1607 phases=3 Linecode=2c_16 Length=11.6642 Units=m
New Line.LINE1615 Bus1=1604 Bus2=1616 phases=3 Linecode=2c_.0225 Length=3.9301 Units=m
New Line.LINE1618 Bus1=1607 Bus2=1619 phases=3 Linecode=2c_16 Length=2.7454 Units=m
New Line.LINE1625 Bus1=1616 Bus2=1626 phases=3 Linecode=2c_.0225 Length=5.3537 Units=m
New Line.LINE1632 Bus1=1626 Bus2=1633 phases=3 Linecode=2c_.0225 Length=1.5703 Units=m
New Line.LINE1638 Bus1=1633 Bus2=1639 phases=3 Linecode=2c_.0225 Length=5.1974 Units=m
New Line.LINE1689 Bus1=1686 Bus2=1690 phases=3 Linecode=2c_16 Length=8.1445 Units=m
New Line.LINE1690 Bus1=1686 Bus2=1691 phases=3 Linecode=4c_.1 Length=10.5254 Units=m
New Line.LINE1696 Bus1=1691 Bus2=1697 phases=3 Linecode=4c_.1 Length=2.1907 Units=m
New Line.LINE1702 Bus1=1697 Bus2=1703 phases=3 Linecode=4c_.06 Length=2.4 Units=m
New Line.LINE1706 Bus1=1703 Bus2=1707 phases=3 Linecode=4c_.06 Length=6.3308 Units=m
New Line.LINE1801 Bus1=1794 Bus2=1802 phases=3 Linecode=4c_95_SAC_XC Length=2.8031 Units=m
New Line.LINE1809 Bus1=1802 Bus2=1810 phases=3 Linecode=4c_.06 Length=3.0749 Units=m
New Line.LINE1818 Bus1=1810 Bus2=1819 phases=3 Linecode=4c_.06 Length=2.5782 Units=m
New Line.LINE1825 Bus1=1819 Bus2=1826 phases=3 Linecode=4c_.06 Length=2.7715 Units=m
New Line.LINE1832 Bus1=1826 Bus2=1833 phases=3 Linecode=4c_.06 Length=2.2755 Units=m
New Line.LINE1838 Bus1=1833 Bus2=1839 phases=3 Linecode=4c_.06 Length=2.443 Units=m
New Line.LINE1843 Bus1=1839 Bus2=1844 phases=3 Linecode=2c_.0225 Length=4.8092 Units=m
New Line.LINE1849 Bus1=1844 Bus2=1850 phases=3 Linecode=2c_.0225 Length=0.7036 Units=m
New Line.LINE1855 Bus1=1850 Bus2=1856 phases=3 Linecode=2c_.0225 Length=1.9822 Units=m
New Line.LINE1859 Bus1=1854 Bus2=1860 phases=3 Linecode=2c_16 Length=2.82 Units=m
New Line.LINE1860 Bus1=1854 Bus2=1861 phases=3 Linecode=2c_16 Length=7.5091 Units=m
New Line.LINE1862 Bus1=1856 Bus2=1863 phases=3 Linecode=2c_.0225 Length=2.3276 Units=m
New Line.LINE1867 Bus1=1863 Bus2=1868 phases=3 Linecode=2c_.0225 Length=0.30194 Units=m
New Line.LINE1895 Bus1=1891 Bus2=1896 phases=3 Linecode=2c_16 Length=3.2587 Units=m
New Line.LINE1Cmpd_0 Bus1=1247 Bus2=1387 phases=3 Linecode=2c_16 Length=14.523658 Units=m
New Line.LINE1Cmpd_1 Bus1=1127 Bus2=1289 phases=3 Linecode=2c_16 Length=14.34716 Units=m
New Line.LINE1Cmpd_2 Bus1=1332 Bus2=1453 phases=3 Linecode=4c_.06 Length=37.66329 Units=m
New Line.LINE1Cmpd_3 Bus1=1559 Bus2=1587 phases=3 Linecode=4c_.06 Length=7.30091 Units=m
New Line.LINE1Cmpd_4 Bus1=132 Bus2=159 phases=3 Linecode=4c_70 Length=21.15538 Units=m
New Line.LINE1Cmpd_5 Bus1=1794 Bus2=1884 phases=3 Linecode=2c_16 Length=10.77222 Units=m
New Line.LINE1Cmpd_6 Bus1=136 Bus2=183 phases=3 Linecode=2c_16 Length=6.44409 Units=m
New Line.LINE1Cmpd_7 Bus1=1505 Bus2=1578 phases=3 Linecode=4c_.1 Length=2.936771 Units=m
New Line.LINE1Cmpd_8 Bus1=1690 Bus2=1778 phases=3 Linecode=2c_16 Length=7.35786 Units=m
New Line.LINE1Cmpd_9 Bus1=1114 Bus2=1247 phases=3 Linecode=4c_.1 Length=28.18684 Units=m
New Line.LINE1Cmpd_10 Bus1=1145 Bus2=1261 phases=3 Linecode=2c_16 Length=11.18521 Units=m
New Line.LINE1Cmpd_11 Bus1=1101 Bus2=1155 phases=3 Linecode=4c_.35 Length=14.67517 Units=m
New Line.LINE1Cmpd_12 Bus1=1615 Bus2=1688 phases=3 Linecode=2c_16 Length=13.76873 Units=m
New Line.LINE1Cmpd_13 Bus1=1391 Bus2=1530 phases=3 Linecode=2c_16 Length=10.680624 Units=m
New Line.LINE1Cmpd_14 Bus1=1373 Bus2=1458 phases=3 Linecode=2c_16 Length=21.23445 Units=m
New Line.LINE1Cmpd_15 Bus1=1707 Bus2=1891 phases=3 Linecode=2c_16 Length=12.748019 Units=m
New Line.LINE1Cmpd_16 Bus1=1155 Bus2=1178 phases=3 Linecode=2c_16 Length=18.5373 Units=m
New Line.LINE1Cmpd_17 Bus1=159 Bus2=1101 phases=3 Linecode=4c_70 Length=13.37622 Units=m
New Line.LINE1Cmpd_18 Bus1=1594 Bus2=1614 phases=3 Linecode=2c_16 Length=14.0043 Units=m
New Line.LINE1Cmpd_19 Bus1=1666 Bus2=1786 phases=3 Linecode=2c_16 Length=15.18983 Units=m
New Line.LINE1Cmpd_20 Bus1=1739 Bus2=1813 phases=3 Linecode=2c_16 Length=5.756153 Units=m
New Line.LINE1Cmpd_21 Bus1=1544 Bus2=1611 phases=3 Linecode=2c_16 Length=6.37701 Units=m
New Line.LINE1Cmpd_22 Bus1=1484 Bus2=1563 phases=3 Linecode=2c_16 Length=5.54817 Units=m
New Line.LINE1Cmpd_23 Bus1=1578 Bus2=1785 phases=3 Linecode=2c_16 Length=15.715408 Units=m
New Line.LINE1Cmpd_24 Bus1=1453 Bus2=1629 phases=3 Linecode=2c_16 Length=16.52655 Units=m
New Line.LINE1Cmpd_25 Bus1=1691 Bus2=1702 phases=3 Linecode=2c_16 Length=14.9747 Units=m
New Line.LINE1Cmpd_26 Bus1=1391 Bus2=1505 phases=3 Linecode=4c_.1 Length=26.309 Units=m
New Line.LINE1Cmpd_27 Bus1=1280 Bus2=1373 phases=3 Linecode=4c_.1 Length=7.301714 Units=m
New Line.LINE1Cmpd_28 Bus1=1261 Bus2=1314 phases=3 Linecode=2c_16 Length=4.80218 Units=m
New Line.LINE1Cmpd_29 Bus1=1283 Bus2=1327 phases=3 Linecode=2c_16 Length=3.324801 Units=m
New Line.LINE1Cmpd_30 Bus1=1666 Bus2=1686 phases=3 Linecode=4c_.1 Length=9.62961 Units=m
New Line.LINE1Cmpd_31 Bus1=11 Bus2=125 phases=3 Linecode=4c_70 Length=21.863341 Units=m
New Line.LINE1Cmpd_32 Bus1=1651 Bus2=1682 phases=3 Linecode=2c_16 Length=6.02494 Units=m
New Line.LINE1Cmpd_33 Bus1=1786 Bus2=1854 phases=3 Linecode=2c_16 Length=2.29182 Units=m
New Line.LINE1Cmpd_34 Bus1=1559 Bus2=1651 phases=3 Linecode=2c_16 Length=13.71347 Units=m
New Line.LINE1Cmpd_35 Bus1=1310 Bus2=1336 phases=3 Linecode=2c_16 Length=7.69863 Units=m
New Line.LINE1Cmpd_36 Bus1=1280 Bus2=1310 phases=3 Linecode=4c_.06 Length=8.23019 Units=m
New Line.LINE1Cmpd_37 Bus1=1475 Bus2=1508 phases=3 Linecode=4c_.06 Length=16.05858 Units=m
New Line.LINE1Cmpd_38 Bus1=1763 Bus2=1835 phases=3 Linecode=2c_16 Length=5.65812 Units=m
New Line.LINE1Cmpd_39 Bus1=1615 Bus2=1666 phases=3 Linecode=4c_.1 Length=2.70115 Units=m
New Line.LINE1Cmpd_40 Bus1=127 Bus2=170 phases=3 Linecode=2c_16 Length=6.747143 Units=m
New Line.LINE1Cmpd_41 Bus1=1336 Bus2=1388 phases=3 Linecode=2c_16 Length=8.52385 Units=m
New Line.LINE1Cmpd_42 Bus1=1508 Bus2=1544 phases=3 Linecode=2c_16 Length=10.65842 Units=m
New Line.LINE1Cmpd_43 Bus1=1484 Bus2=1502 phases=3 Linecode=2c_16 Length=6.6786 Units=m
New Line.LINE1Cmpd_44 Bus1=1868 Bus2=1886 phases=3 Linecode=2c_.0225 Length=7.50839 Units=m
New Line.LINE1Cmpd_45 Bus1=1188 Bus2=1264 phases=3 Linecode=2c_16 Length=8.2381 Units=m
New Line.LINE1Cmpd_46 Bus1=1261 Bus2=1276 phases=3 Linecode=2c_16 Length=6.8846 Units=m
New Line.LINE1Cmpd_47 Bus1=1263 Bus2=1342 phases=3 Linecode=2c_16 Length=14.96775 Units=m
New Line.LINE1Cmpd_48 Bus1=1114 Bus2=1127 phases=3 Linecode=4c_.35 Length=4.17271 Units=m
New Line.LINE1Cmpd_49 Bus1=1745 Bus2=1763 phases=3 Linecode=2c_16 Length=10.8733 Units=m
New Line.LINE1Cmpd_50 Bus1=1508 Bus2=1559 phases=3 Linecode=4c_.06 Length=12.9494 Units=m
New Line.LINE1Cmpd_51 Bus1=1453 Bus2=1475 phases=3 Linecode=4c_.06 Length=13.5743 Units=m
New Line.LINE1Cmpd_52 Bus1=1127 Bus2=1145 phases=3 Linecode=4c_.35 Length=16.0946 Units=m
New Line.LINE1Cmpd_53 Bus1=1332 Bus2=1406 phases=3 Linecode=2c_16 Length=15.785302 Units=m
New Line.LINE1Cmpd_54 Bus1=1891 Bus2=1900 phases=3 Linecode=2c_16 Length=9.6933 Units=m
New Line.LINE1Cmpd_55 Bus1=1745 Bus2=1794 phases=3 Linecode=4c_.06 Length=19.4603 Units=m
New Line.LINE1Cmpd_56 Bus1=1718 Bus2=1739 phases=3 Linecode=2c_16 Length=11.26017 Units=m
New Line.LINE1Cmpd_57 Bus1=1578 Bus2=1594 phases=3 Linecode=4c_.1 Length=4.77453 Units=m
New Line.LINE1Cmpd_58 Bus1=1868 Bus2=1899 phases=3 Linecode=2c_.0225 Length=9.33893 Units=m
New Line.LINE1Cmpd_59 Bus1=1101 Bus2=1114 phases=3 Linecode=4c_70 Length=8.79792 Units=m
New Line.LINE1Cmpd_60 Bus1=1188 Bus2=1208 phases=3 Linecode=2c_16 Length=6.9136 Units=m
New Line.LINE1Cmpd_61 Bus1=1263 Bus2=1280 phases=3 Linecode=4c_.1 Length=4.9913 Units=m
New Line.LINE1Cmpd_62 Bus1=1283 Bus2=1320 phases=3 Linecode=2c_16 Length=7.11685 Units=m
New Line.LINE1Cmpd_63 Bus1=1196 Bus2=1225 phases=3 Linecode=2c_16 Length=18.4592 Units=m
New Line.LINE1Cmpd_64 Bus1=1155 Bus2=1171 phases=3 Linecode=4c_.35 Length=12.3 Units=m
New Line.LINE1Cmpd_65 Bus1=1690 Bus2=1701 phases=3 Linecode=2c_16 Length=6.4573 Units=m
New Line.LINE1Cmpd_66 Bus1=136 Bus2=147 phases=3 Linecode=2c_16 Length=6.1526 Units=m
New Line.LINE1Cmpd_67 Bus1=1530 Bus2=1556 phases=3 Linecode=2c_16 Length=9.8006 Units=m
New Line.LINE1Cmpd_68 Bus1=1651 Bus2=1676 phases=3 Linecode=2c_16 Length=5.34659 Units=m
New Line.LINE1Cmpd_69 Bus1=1247 Bus2=1263 phases=3 Linecode=4c_.1 Length=4.06958 Units=m
New Line.LINE1Cmpd_70 Bus1=1171 Bus2=1188 phases=3 Linecode=2c_16 Length=12.4482 Units=m
New Line.LINE1Cmpd_71 Bus1=1884 Bus2=1906 phases=3 Linecode=2c_16 Length=8.09168 Units=m
New Line.LINE1Cmpd_72 Bus1=1171 Bus2=1196 phases=3 Linecode=4c_.35 Length=14.1361 Units=m
New Line.LINE1Cmpd_73 Bus1=1884 Bus2=1898 phases=3 Linecode=35_SAC_XSC Length=10.3363 Units=m
New Line.LINE1Cmpd_74 Bus1=1310 Bus2=1325 phases=3 Linecode=4c_.06 Length=10.6794 Units=m
New Line.LINE1Cmpd_75 Bus1=1786 Bus2=1817 phases=3 Linecode=2c_16 Length=9.7761 Units=m
New Line.LINE1Cmpd_76 Bus1=11 Bus2=132 phases=3 Linecode=4c_70 Length=12.6224 Units=m
New Line.LINE1Cmpd_77 Bus1=1718 Bus2=1745 phases=3 Linecode=4c_.06 Length=17.0068 Units=m
New Line.LINE1Cmpd_78 Bus1=1594 Bus2=1615 phases=3 Linecode=4c_.1 Length=9.089 Units=m
New Line.LINE1Cmpd_79 Bus1=1763 Bus2=1780 phases=3 Linecode=2c_16 Length=7.129 Units=m
New Line.LINE1Cmpd_80 Bus1=127 Bus2=134 phases=3 Linecode=2c_16 Length=5.3513 Units=m
New Line.LINE1Cmpd_81 Bus1=1373 Bus2=1391 phases=3 Linecode=4c_.1 Length=7.37111 Units=m
New Line.LINE1Cmpd_82 Bus1=1336 Bus2=1349 phases=3 Linecode=2c_16 Length=5.1973 Units=m
New Line.LINE1Cmpd_83 Bus1=1505 Bus2=1522 phases=3 Linecode=2c_16 Length=10.4722 Units=m
New Line.LINE1Cmpd_84 Bus1=1544 Bus2=1562 phases=3 Linecode=2c_16 Length=6.6554 Units=m
New Line.LINE1Cmpd_85 Bus1=1325 Bus2=1337 phases=3 Linecode=2c_16 Length=12.7504 Units=m
New Line.LINE1Cmpd_86 Bus1=1739 Bus2=1755 phases=3 Linecode=2c_16 Length=6.7778 Units=m
New Line.LINE1Cmpd_87 Bus1=1707 Bus2=1718 phases=3 Linecode=4c_.06 Length=15.2459 Units=m
New Line.LINE265 Bus1=11 Bus2=266 phases=3 Linecode=4c_300_SAC Length=0.47332 Units=m
New Line.LINE267 Bus1=266 Bus2=268 phases=3 Linecode=4c_300_SAC Length=0.72048 Units=m
New Line.LINE270 Bus1=268 Bus2=271 phases=3 Linecode=4c_300_SAC Length=1.0686 Units=m
New Line.LINE273 Bus1=271 Bus2=274 phases=3 Linecode=4c_300_SAC Length=0.85425 Units=m
New Line.LINE276 Bus1=274 Bus2=277 phases=3 Linecode=4c_300_SAC Length=0.79964 Units=m
New Line.LINE279 Bus1=277 Bus2=280 phases=3 Linecode=4c_300_SAC Length=0.56945 Units=m
New Line.LINE282 Bus1=280 Bus2=283 phases=3 Linecode=4c_300_SAC Length=0.4081 Units=m
New Line.LINE284 Bus1=283 Bus2=285 phases=3 Linecode=4c_300_SAC Length=0.391 Units=m
New Line.LINE286 Bus1=285 Bus2=287 phases=3 Linecode=4c_300_SAC Length=0.36271 Units=m
New Line.LINE289 Bus1=287 Bus2=290 phases=3 Linecode=4c_300_SAC Length=0.9651 Units=m
New Line.LINE293 Bus1=290 Bus2=294 phases=3 Linecode=4c_300_SAC Length=1.0592 Units=m
New Line.LINE297 Bus1=294 Bus2=298 phases=3 Linecode=4c_300_SAC Length=5.4917 Units=m
New Line.LINE2102 Bus1=298 Bus2=2103 phases=3 Linecode=4c_300_SAC Length=3.9741 Units=m
New Line.LINE2108 Bus1=2103 Bus2=2109 phases=3 Linecode=4c_300_SAC Length=6.2021 Units=m
New Line.LINE2114 Bus1=2109 Bus2=2115 phases=3 Linecode=25_SAC_XC Length=18.6333 Units=m
New Line.LINE2169 Bus1=2165 Bus2=2170 phases=3 Linecode=4c_.06 Length=2.1281 Units=m
New Line.LINE2189 Bus1=2183 Bus2=2190 phases=3 Linecode=4c_.06 Length=4.0245 Units=m
New Line.LINE2209 Bus1=2201 Bus2=2210 phases=3 Linecode=4c_.06 Length=12.6298 Units=m
New Line.LINE2220 Bus1=2210 Bus2=2221 phases=3 Linecode=4c_.06 Length=3.3509 Units=m
New Line.LINE2221 Bus1=2211 Bus2=2222 phases=3 Linecode=2c_.0225 Length=5.1057 Units=m
New Line.LINE2222 Bus1=2211 Bus2=2223 phases=3 Linecode=2c_.0225 Length=5.1057 Units=m
New Line.LINE2233 Bus1=2221 Bus2=2234 phases=3 Linecode=4c_.06 Length=3.6388 Units=m
New Line.LINE2243 Bus1=2234 Bus2=2244 phases=3 Linecode=2c_.0225 Length=2.4762 Units=m
New Line.LINE2250 Bus1=2241 Bus2=2251 phases=3 Linecode=2c_.0225 Length=6.7186 Units=m
New Line.LINE2254 Bus1=2244 Bus2=2255 phases=3 Linecode=2c_.0225 Length=0.22672 Units=m
New Line.LINE2265 Bus1=2255 Bus2=2266 phases=3 Linecode=2c_.0225 Length=0.32487 Units=m
New Line.LINE2273 Bus1=2263 Bus2=2274 phases=3 Linecode=4c_.06 Length=7.6317 Units=m
New Line.LINE2276 Bus1=2266 Bus2=2277 phases=3 Linecode=2c_.0225 Length=0.40594 Units=m
New Line.LINE2277 Bus1=2267 Bus2=2278 phases=3 Linecode=2c_.0225 Length=4.4991 Units=m
New Line.LINE2278 Bus1=2267 Bus2=2279 phases=3 Linecode=2c_.0225 Length=4.4991 Units=m
New Line.LINE2288 Bus1=2277 Bus2=2289 phases=3 Linecode=2c_.0225 Length=1.2446 Units=m
New Line.LINE2297 Bus1=2289 Bus2=2298 phases=3 Linecode=2c_.0225 Length=0.27461 Units=m
New Line.LINE2305 Bus1=2298 Bus2=2306 phases=3 Linecode=2c_.0225 Length=0.22638 Units=m
New Line.LINE2313 Bus1=2306 Bus2=2314 phases=3 Linecode=2c_.0225 Length=0.34976 Units=m
New Line.LINE2318 Bus1=2311 Bus2=2319 phases=3 Linecode=2c_.04 Length=7.9319 Units=m
New Line.LINE2321 Bus1=2314 Bus2=2322 phases=3 Linecode=2c_.0225 Length=3.8953 Units=m
New Line.LINE2325 Bus1=2319 Bus2=2326 phases=3 Linecode=2c_.04 Length=5.3493 Units=m
New Line.LINE2326 Bus1=2319 Bus2=2327 phases=3 Linecode=2c_.04 Length=5.3493 Units=m
New Line.LINE2329 Bus1=2322 Bus2=2330 phases=3 Linecode=2c_.0225 Length=0.15988 Units=m
New Line.LINE2335 Bus1=2330 Bus2=2336 phases=3 Linecode=2c_.0225 Length=0.21537 Units=m
New Line.LINE2341 Bus1=2336 Bus2=2342 phases=3 Linecode=2c_.0225 Length=0.18832 Units=m
New Line.LINE2347 Bus1=2342 Bus2=2348 phases=3 Linecode=2c_.0225 Length=0.21465 Units=m
New Line.LINE2350 Bus1=2344 Bus2=2351 phases=3 Linecode=4c_.06 Length=13.1234 Units=m
New Line.LINE2353 Bus1=2348 Bus2=2354 phases=3 Linecode=2c_.0225 Length=0.522 Units=m
New Line.LINE2357 Bus1=2351 Bus2=2358 phases=3 Linecode=4c_.06 Length=3.0093 Units=m
New Line.LINE2360 Bus1=2354 Bus2=2361 phases=3 Linecode=2c_.0225 Length=1.0967 Units=m
New Line.LINE2361 Bus1=2354 Bus2=2362 phases=3 Linecode=2c_.0225 Length=1.0967 Units=m
New Line.LINE2365 Bus1=2358 Bus2=2366 phases=3 Linecode=4c_.06 Length=2.8695 Units=m
New Line.LINE2370 Bus1=2366 Bus2=2371 phases=3 Linecode=2c_.0225 Length=2.1311 Units=m
New Line.LINE2376 Bus1=2371 Bus2=2377 phases=3 Linecode=2c_.0225 Length=0.51751 Units=m
New Line.LINE2381 Bus1=2377 Bus2=2382 phases=3 Linecode=2c_.0225 Length=0.26011 Units=m
New Line.LINE2386 Bus1=2382 Bus2=2387 phases=3 Linecode=2c_.0225 Length=0.2452 Units=m
New Line.LINE2391 Bus1=2387 Bus2=2392 phases=3 Linecode=2c_.0225 Length=0.21019 Units=m
New Line.LINE2397 Bus1=2392 Bus2=2398 phases=3 Linecode=2c_.0225 Length=0.44931 Units=m
New Line.LINE2401 Bus1=2398 Bus2=2402 phases=3 Linecode=2c_.0225 Length=1.0331 Units=m
New Line.LINE2404 Bus1=2402 Bus2=2405 phases=3 Linecode=2c_.0225 Length=0.77086 Units=m
New Line.LINE2405 Bus1=2403 Bus2=2406 phases=3 Linecode=2c_.0225 Length=5.2004 Units=m
New Line.LINE2408 Bus1=2405 Bus2=2409 phases=3 Linecode=2c_.0225 Length=0.36628 Units=m
New Line.LINE2413 Bus1=2409 Bus2=2414 phases=3 Linecode=2c_.0225 Length=0.2531 Units=m
New Line.LINE2418 Bus1=2414 Bus2=2419 phases=3 Linecode=2c_.0225 Length=0.30959 Units=m
New Line.LINE2422 Bus1=2419 Bus2=2423 phases=3 Linecode=2c_.0225 Length=2.3991 Units=m
New Line.LINE2425 Bus1=2421 Bus2=2426 phases=3 Linecode=2c_.0225 Length=5.2133 Units=m
New Line.LINE2427 Bus1=2423 Bus2=2428 phases=3 Linecode=2c_.0225 Length=0.35512 Units=m
New Line.LINE2434 Bus1=2428 Bus2=2435 phases=3 Linecode=2c_.0225 Length=0.17923 Units=m
New Line.LINE2441 Bus1=2435 Bus2=2442 phases=3 Linecode=2c_.0225 Length=0.066468 Units=m
New Line.LINE2447 Bus1=2442 Bus2=2448 phases=3 Linecode=2c_.0225 Length=0.14863 Units=m
New Line.LINE2451 Bus1=2448 Bus2=2452 phases=3 Linecode=2c_.0225 Length=0.611 Units=m
New Line.LINE2454 Bus1=2452 Bus2=2455 phases=3 Linecode=2c_.0225 Length=5.158 Units=m
New Line.LINE2455 Bus1=2452 Bus2=2456 phases=3 Linecode=2c_.0225 Length=5.158 Units=m
New Line.LINE2471 Bus1=2471 Bus2=2472 phases=3 Linecode=4c_.06 Length=2.6474 Units=m
New Line.LINE2475 Bus1=2472 Bus2=2476 phases=3 Linecode=2c_.0225 Length=6.5334 Units=m
New Line.LINE2478 Bus1=2476 Bus2=2479 phases=3 Linecode=2c_.0225 Length=5.2894 Units=m
New Line.LINE2Cmpd_0 Bus1=2251 Bus2=2317 phases=3 Linecode=2c_.0225 Length=7.66833 Units=m
New Line.LINE2Cmpd_1 Bus1=21 Bus2=265 phases=3 Linecode=4c_70 Length=76.306289 Units=m
New Line.LINE2Cmpd_2 Bus1=2251 Bus2=2271 phases=3 Linecode=2c_.0225 Length=5.9651 Units=m
New Line.LINE2Cmpd_3 Bus1=2190 Bus2=2344 phases=3 Linecode=4c_.06 Length=28.22103 Units=m
New Line.LINE2Cmpd_4 Bus1=2457 Bus2=2471 phases=3 Linecode=4c_.06 Length=12.646 Units=m
New Line.LINE2Cmpd_5 Bus1=2100 Bus2=2199 phases=3 Linecode=4c_.06 Length=12.785968 Units=m
New Line.LINE2Cmpd_6 Bus1=11 Bus2=2100 phases=3 Linecode=4c_.1 Length=42.60539 Units=m
New Line.LINE2Cmpd_7 Bus1=2241 Bus2=2263 phases=3 Linecode=4c_.06 Length=12.4264 Units=m
New Line.LINE2Cmpd_8 Bus1=2311 Bus2=2388 phases=3 Linecode=4c_.06 Length=18.40222 Units=m
New Line.LINE2Cmpd_9 Bus1=2274 Bus2=2345 phases=3 Linecode=2c_.0225 Length=14.19401 Units=m
New Line.LINE2Cmpd_10 Bus1=2457 Bus2=2469 phases=3 Linecode=2c_.0225 Length=11.26687 Units=m
New Line.LINE2Cmpd_11 Bus1=2263 Bus2=2284 phases=3 Linecode=2c_.0225 Length=13.2476 Units=m
New Line.LINE2Cmpd_12 Bus1=2165 Bus2=2211 phases=3 Linecode=2c_.0225 Length=10.89 Units=m
New Line.LINE2Cmpd_13 Bus1=2183 Bus2=2196 phases=3 Linecode=2c_.0225 Length=12.5884 Units=m
New Line.LINE2Cmpd_14 Bus1=2403 Bus2=2421 phases=3 Linecode=4c_.06 Length=14.6645 Units=m
New Line.LINE2Cmpd_15 Bus1=2199 Bus2=2332 phases=3 Linecode=2c_.0225 Length=18.12726 Units=m
New Line.LINE2Cmpd_16 Bus1=2426 Bus2=2461 phases=3 Linecode=2c_.0225 Length=7.355172 Units=m
New Line.LINE2Cmpd_17 Bus1=2274 Bus2=2311 phases=3 Linecode=4c_.06 Length=15.5397 Units=m
New Line.LINE2Cmpd_18 Bus1=2190 Bus2=2267 phases=3 Linecode=2c_.0225 Length=10.1129 Units=m
New Line.LINE2Cmpd_19 Bus1=2143 Bus2=2201 phases=3 Linecode=4c_.06 Length=18.50579 Units=m
New Line.LINE2Cmpd_20 Bus1=2421 Bus2=2457 phases=3 Linecode=4c_.06 Length=16.0484 Units=m
New Line.LINE2Cmpd_21 Bus1=2406 Bus2=2415 phases=3 Linecode=2c_.0225 Length=6.48941 Units=m
New Line.LINE2Cmpd_22 Bus1=2351 Bus2=2364 phases=3 Linecode=2c_.0225 Length=12.2431 Units=m
New Line.LINE2Cmpd_23 Bus1=2388 Bus2=2399 phases=3 Linecode=2c_.0225 Length=10.1249 Units=m
New Line.LINE2Cmpd_24 Bus1=2199 Bus2=2217 phases=3 Linecode=4c_.06 Length=3.4967 Units=m
New Line.LINE2Cmpd_25 Bus1=2406 Bus2=2443 phases=3 Linecode=2c_.0225 Length=7.05925 Units=m
New Line.LINE2Cmpd_26 Bus1=2426 Bus2=2440 phases=3 Linecode=2c_.0225 Length=6.337 Units=m
New Line.LINE2Cmpd_27 Bus1=2471 Bus2=2477 phases=3 Linecode=2c_.0225 Length=11.8922 Units=m
New Line.LINE2Cmpd_28 Bus1=2100 Bus2=2143 phases=3 Linecode=4c_.1 Length=18.14295 Units=m
New Line.LINE2Cmpd_29 Bus1=2217 Bus2=2240 phases=3 Linecode=2c_.0225 Length=13.0289 Units=m
New Line.LINE2Cmpd_30 Bus1=2388 Bus2=2403 phases=3 Linecode=4c_.06 Length=12.2146 Units=m
New Line.LINE2Cmpd_31 Bus1=2217 Bus2=2241 phases=3 Linecode=4c_.06 Length=13.9863 Units=m
New Line.LINE2Cmpd_32 Bus1=2143 Bus2=2165 phases=3 Linecode=4c_.06 Length=11.99209 Units=m
New Line.LINE2Cmpd_33 Bus1=2344 Bus2=2356 phases=3 Linecode=2c_.0225 Length=12.4233 Units=m
New Line.LINE2Cmpd_34 Bus1=2201 Bus2=2219 phases=3 Linecode=2c_.0225 Length=12.9803 Units=m
New Line.LINE2Cmpd_35 Bus1=2210 Bus2=2232 phases=3 Linecode=2c_.0225 Length=11.8998 Units=m
New Line.LINE2Cmpd_36 Bus1=2170 Bus2=2183 phases=3 Linecode=4c_.06 Length=13.1947 Units=m
New Line.LINE2Cmpd_37 Bus1=2170 Bus2=2181 phases=3 Linecode=2c_.0225 Length=14.7847 Units=m
New Line.LINE375 Bus1=11 Bus2=376 phases=3 Linecode=4c_70 Length=4.5939 Units=m
New Line.LINE379 Bus1=376 Bus2=380 phases=3 Linecode=4c_70 Length=1.0987 Units=m
New Line.LINE384 Bus1=380 Bus2=385 phases=3 Linecode=4c_70 Length=4.5962 Units=m
New Line.LINE388 Bus1=385 Bus2=389 phases=3 Linecode=4c_70 Length=4.599 Units=m
New Line.LINE392 Bus1=389 Bus2=393 phases=3 Linecode=4c_.06 Length=2.2794 Units=m
New Line.LINE396 Bus1=393 Bus2=397 phases=3 Linecode=2c_16 Length=9.0916 Units=m
New Line.LINE3116 Bus1=3111 Bus2=3117 phases=3 Linecode=2c_16 Length=5.5869 Units=m
New Line.LINE3117 Bus1=3111 Bus2=3118 phases=3 Linecode=2c_16 Length=5.5869 Units=m
New Line.LINE3195 Bus1=3191 Bus2=3196 phases=3 Linecode=2c_16 Length=13.0753 Units=m
New Line.LINE3203 Bus1=3199 Bus2=3204 phases=3 Linecode=25_SAC_XC Length=7.2987 Units=m
New Line.LINE3204 Bus1=3199 Bus2=3205 phases=3 Linecode=4c_.35 Length=7.5601 Units=m
New Line.LINE3208 Bus1=3203 Bus2=3209 phases=3 Linecode=25_SAC_XC Length=2.6236 Units=m
New Line.LINE3209 Bus1=3203 Bus2=3210 phases=3 Linecode=25_SAC_XC Length=2.6236 Units=m
New Line.LINE3210 Bus1=3205 Bus2=3211 phases=3 Linecode=2c_.0225 Length=1.1442 Units=m
New Line.LINE3214 Bus1=3211 Bus2=3215 phases=3 Linecode=2c_.0225 Length=0.23177 Units=m
New Line.LINE3218 Bus1=3215 Bus2=3219 phases=3 Linecode=2c_.0225 Length=0.19331 Units=m
New Line.LINE3222 Bus1=3219 Bus2=3223 phases=3 Linecode=2c_.0225 Length=0.24015 Units=m
New Line.LINE3226 Bus1=3223 Bus2=3227 phases=3 Linecode=2c_.0225 Length=0.34312 Units=m
New Line.LINE3230 Bus1=3227 Bus2=3231 phases=3 Linecode=2c_.0225 Length=1.5534 Units=m
New Line.LINE3234 Bus1=3231 Bus2=3235 phases=3 Linecode=2c_.0225 Length=0.25258 Units=m
New Line.LINE3236 Bus1=3233 Bus2=3237 phases=3 Linecode=2c_25 Length=2.5957 Units=m
New Line.LINE3237 Bus1=3233 Bus2=3238 phases=3 Linecode=2c_25 Length=2.5957 Units=m
New Line.LINE3239 Bus1=3235 Bus2=3240 phases=3 Linecode=2c_.0225 Length=0.15263 Units=m
New Line.LINE3242 Bus1=3240 Bus2=3243 phases=3 Linecode=2c_.0225 Length=0.16981 Units=m
New Line.LINE3245 Bus1=3243 Bus2=3246 phases=3 Linecode=2c_.0225 Length=1.0526 Units=m
New Line.LINE3248 Bus1=3246 Bus2=3249 phases=3 Linecode=2c_.0225 Length=6.0071 Units=m
New Line.LINE3249 Bus1=3246 Bus2=3250 phases=3 Linecode=2c_.0225 Length=6.0071 Units=m
New Line.LINE3329 Bus1=3325 Bus2=3330 phases=3 Linecode=2c_.04 Length=10.8747 Units=m
New Line.LINE3340 Bus1=3334 Bus2=3341 phases=3 Linecode=2c_.0225 Length=10.134 Units=m
New Line.LINE3378 Bus1=3373 Bus2=3379 phases=3 Linecode=2c_.04 Length=4.177 Units=m
New Line.LINE3379 Bus1=3373 Bus2=3380 phases=3 Linecode=2c_.04 Length=4.177 Units=m
New Line.LINE3390 Bus1=3385 Bus2=3391 phases=3 Linecode=2c_.0225 Length=2.9034 Units=m
New Line.LINE3391 Bus1=3385 Bus2=3392 phases=3 Linecode=2c_.0225 Length=2.9034 Units=m
New Line.LINE3398 Bus1=3395 Bus2=3399 phases=3 Linecode=2c_.0225 Length=3.8513 Units=m
New Line.LINE3447 Bus1=3443 Bus2=3448 phases=3 Linecode=4c_.06 Length=5.0725 Units=m
New Line.LINE3453 Bus1=3448 Bus2=3454 phases=3 Linecode=2c_.04 Length=11.4839 Units=m
New Line.LINE3460 Bus1=3454 Bus2=3461 phases=3 Linecode=2c_.04 Length=0.22522 Units=m
New Line.LINE3465 Bus1=3461 Bus2=3466 phases=3 Linecode=2c_.04 Length=0.1414 Units=m
New Line.LINE3479 Bus1=3476 Bus2=3480 phases=3 Linecode=2c_.04 Length=2.7519 Units=m
New Line.LINE3480 Bus1=3476 Bus2=3481 phases=3 Linecode=2c_.04 Length=2.7519 Units=m
New Line.LINE3502 Bus1=3502 Bus2=3503 phases=3 Linecode=2c_.04 Length=8.1196 Units=m
New Line.LINE3503 Bus1=3502 Bus2=3504 phases=3 Linecode=2c_.04 Length=8.1196 Units=m
New Line.LINE3Cmpd_0 Bus1=3334 Bus2=3384 phases=3 Linecode=4c_.06 Length=1.721175 Units=m
New Line.LINE3Cmpd_1 Bus1=31 Bus2=365 phases=3 Linecode=4c_70 Length=60.842558 Units=m
New Line.LINE3Cmpd_2 Bus1=3120 Bus2=3139 phases=3 Linecode=4c_.35 Length=2.89606 Units=m
New Line.LINE3Cmpd_3 Bus1=3443 Bus2=3488 phases=3 Linecode=2c_.04 Length=9.582 Units=m
New Line.LINE3Cmpd_4 Bus1=3488 Bus2=3502 phases=3 Linecode=2c_.04 Length=8.15925 Units=m
New Line.LINE3Cmpd_5 Bus1=377 Bus2=3111 phases=3 Linecode=2c_16 Length=7.94835 Units=m
New Line.LINE3Cmpd_6 Bus1=3123 Bus2=3163 phases=3 Linecode=2c_16 Length=14.54087 Units=m
New Line.LINE3Cmpd_7 Bus1=397 Bus2=3149 phases=3 Linecode=2c_16 Length=8.38241 Units=m
New Line.LINE3Cmpd_8 Bus1=11 Bus2=3190 phases=3 Linecode=2c_16 Length=18.0255 Units=m
New Line.LINE3Cmpd_9 Bus1=3399 Bus2=3442 phases=3 Linecode=2c_.0225 Length=9.62974 Units=m
New Line.LINE3Cmpd_10 Bus1=3139 Bus2=3177 phases=3 Linecode=4c_.35 Length=2.02461 Units=m
New Line.LINE3Cmpd_11 Bus1=3384 Bus2=3459 phases=3 Linecode=2c_.0225 Length=17.53028 Units=m
New Line.LINE3Cmpd_12 Bus1=3276 Bus2=3299 phases=3 Linecode=2c_16 Length=6.50587 Units=m
New Line.LINE3Cmpd_13 Bus1=3191 Bus2=3256 phases=3 Linecode=4c_.06 Length=39.21978 Units=m
New Line.LINE3Cmpd_14 Bus1=3137 Bus2=3191 phases=3 Linecode=4c_.06 Length=24.9551 Units=m
New Line.LINE3Cmpd_15 Bus1=377 Bus2=3106 phases=3 Linecode=4c_.35 Length=9.6374 Units=m
New Line.LINE3Cmpd_16 Bus1=3262 Bus2=3280 phases=3 Linecode=4c_.06 Length=13.24214 Units=m
New Line.LINE3Cmpd_17 Bus1=3196 Bus2=3255 phases=3 Linecode=2c_16 Length=9.996429 Units=m
New Line.LINE3Cmpd_18 Bus1=3419 Bus2=3478 phases=3 Linecode=2c_.0225 Length=15.62709 Units=m
New Line.LINE3Cmpd_19 Bus1=3196 Bus2=3233 phases=3 Linecode=2c_25 Length=8.08534 Units=m
New Line.LINE3Cmpd_20 Bus1=3139 Bus2=3203 phases=3 Linecode=25_SAC_XC Length=5.46941 Units=m
New Line.LINE3Cmpd_21 Bus1=3276 Bus2=3307 phases=3 Linecode=2c_16 Length=7.58898 Units=m
New Line.LINE3Cmpd_22 Bus1=393 Bus2=3123 phases=3 Linecode=4c_.06 Length=16.4083 Units=m
New Line.LINE3Cmpd_23 Bus1=3280 Bus2=3325 phases=3 Linecode=4c_.06 Length=34.56723 Units=m
New Line.LINE3Cmpd_24 Bus1=3262 Bus2=3276 phases=3 Linecode=2c_16 Length=5.44312 Units=m
New Line.LINE3Cmpd_25 Bus1=3330 Bus2=3373 phases=3 Linecode=2c_.04 Length=2.62955 Units=m
New Line.LINE3Cmpd_26 Bus1=3419 Bus2=3443 phases=3 Linecode=4c_.06 Length=8.28845 Units=m
New Line.LINE3Cmpd_27 Bus1=3106 Bus2=3119 phases=3 Linecode=2c_16 Length=4.9173 Units=m
New Line.LINE3Cmpd_28 Bus1=3120 Bus2=3132 phases=3 Linecode=2c_16 Length=6.8185 Units=m
New Line.LINE3Cmpd_29 Bus1=365 Bus2=377 phases=3 Linecode=4c_.35 Length=7.20437 Units=m
New Line.LINE3Cmpd_30 Bus1=3395 Bus2=3419 phases=3 Linecode=4c_.06 Length=6.74645 Units=m
New Line.LINE3Cmpd_31 Bus1=3341 Bus2=3385 phases=3 Linecode=2c_.0225 Length=13.2756 Units=m
New Line.LINE3Cmpd_32 Bus1=3177 Bus2=3188 phases=3 Linecode=2c_.0225 Length=8.2325 Units=m
New Line.LINE3Cmpd_33 Bus1=3177 Bus2=3199 phases=3 Linecode=4c_.35 Length=9.76509 Units=m
New Line.LINE3Cmpd_34 Bus1=3280 Bus2=3288 phases=3 Linecode=2c_.0225 Length=12.4407 Units=m
New Line.LINE3Cmpd_35 Bus1=3488 Bus2=3493 phases=3 Linecode=2c_.04 Length=9.1964 Units=m
New Line.LINE3Cmpd_36 Bus1=3466 Bus2=3475 phases=3 Linecode=2c_.04 Length=8.8019 Units=m
New Line.LINE3Cmpd_37 Bus1=3256 Bus2=3262 phases=3 Linecode=4c_.06 Length=14.6866 Units=m
New Line.LINE3Cmpd_38 Bus1=3106 Bus2=3120 phases=3 Linecode=4c_.35 Length=12.1716 Units=m
New Line.LINE3Cmpd_39 Bus1=3341 Bus2=3359 phases=3 Linecode=2c_.0225 Length=5.1158 Units=m
New Line.LINE3Cmpd_40 Bus1=3137 Bus2=3151 phases=3 Linecode=2c_16 Length=14.1107 Units=m
New Line.LINE3Cmpd_41 Bus1=397 Bus2=3109 phases=3 Linecode=2c_16 Length=6.9817 Units=m