New Line.LINE1 Bus1=1 Bus2=2 phases=3 Linecode=3c_300_SAC_XC Length=0.49808 Units=m
New Line.LINE2 Bus1=2 Bus2=3 phases=3 Linecode=3c_300_SAC_XC Length=0.069123 Units=m
New Line.LINE3 Bus1=3 Bus2=4 phases=3 Linecode=3c_300_SAC_XC Length=0.069065 Units=m
New Line.LINE4 Bus1=4 Bus2=5 phases=3 Linecode=3c_300_SAC_XC Length=0.069721 Units=m
New Line.LINE5 Bus1=5 Bus2=6 phases=3 Linecode=3c_300_SAC_XC Length=0.068949 Units=m
New Line.LINE6 Bus1=6 Bus2=7 phases=3 Linecode=3c_300_SAC_XC Length=0.068964 Units=m
New Line.LINE7 Bus1=7 Bus2=8 phases=3 Linecode=3c_300_SAC_XC Length=0.069527 Units=m
New Line.LINE8 Bus1=8 Bus2=9 phases=3 Linecode=3c_300_SAC_XC Length=0.069815 Units=m
New Line.LINE9 Bus1=9 Bus2=10 phases=3 Linecode=3c_300_SAC_XC Length=0.068884 Units=m
New Line.LINE10 Bus1=10 Bus2=11 phases=3 Linecode=3c_300_SAC_XC Length=0.99993 Units=m
New Line.LINE11 Bus1=11 Bus2=12 phases=3 Linecode=3c_300_SAC_XC Length=0.88425 Units=m
New Line.LINE12 Bus1=12 Bus2=13 phases=3 Linecode=3c_300_SAC_XC Length=0.22408 Units=m
New Line.LINE13 Bus1=13 Bus2=14 phases=3 Linecode=3c_300_SAC_XC Length=0.22424 Units=m
New Line.LINE14 Bus1=14 Bus2=15 phases=3 Linecode=3c_300_SAC_XC Length=0.22345 Units=m
New Line.LINE15 Bus1=15 Bus2=16 phases=3 Linecode=3c_300_SAC_XC Length=0.22383 Units=m
New Line.LINE16 Bus1=16 Bus2=17 phases=3 Linecode=3c_300_SAC_XC Length=0.2242 Units=m
New Line.LINE17 Bus1=17 Bus2=18 phases=3 Linecode=3c_300_SAC_XC Length=3.6693 Units=m
New Line.LINE18 Bus1=18 Bus2=19 phases=3 Linecode=3c_300_SAC_XC Length=0.22359 Units=m
New Line.LINE19 Bus1=19 Bus2=20 phases=3 Linecode=3c_300_SAC_XC Length=0.22365 Units=m
New Line.LINE20 Bus1=20 Bus2=21 phases=3 Linecode=3c_300_SAC_XC Length=0.22401 Units=m
New Line.LINE21 Bus1=21 Bus2=22 phases=3 Linecode=3c_300_SAC_XC Length=0.22361 Units=m
New Line.LINE22 Bus1=22 Bus2=23 phases=3 Linecode=3c_300_SAC_XC Length=0.22357 Units=m
New Line.LINE23 Bus1=23 Bus2=24 phases=3 Linecode=3c_300_SAC_XC Length=0.22401 Units=m
New Line.LINE24 Bus1=24 Bus2=25 phases=3 Linecode=3c_300_SAC_XC Length=0.57724 Units=m
New Line.LINE25 Bus1=25 Bus2=26 phases=3 Linecode=3c_300_SAC_XC Length=0.21351 Units=m
New Line.LINE26 Bus1=26 Bus2=27 phases=3 Linecode=3c_300_SAC_XC Length=29.9793 Units=m
New Line.LINE29 Bus1=27 Bus2=30 phases=3 Linecode=25_SAC_XC Length=0.81449 Units=m
New Line.LINE30 Bus1=30 Bus2=31 phases=3 Linecode=3c_300_SAC_XC Length=0.04368 Units=m
New Line.LINE31 Bus1=31 Bus2=32 phases=3 Linecode=3c_300_SAC_XC Length=0.044182 Units=m
New Line.LINE32 Bus1=32 Bus2=33 phases=3 Linecode=3c_300_SAC_XC Length=0.043105 Units=m
New Line.LINE33 Bus1=33 Bus2=34 phases=3 Linecode=3c_300_SAC_XC Length=0.044384 Units=m
New Line.LINE34 Bus1=34 Bus2=35 phases=3 Linecode=3c_300_SAC_XC Length=0.043383 Units=m
New Line.LINE35 Bus1=35 Bus2=36 phases=3 Linecode=3c_300_SAC_XC Length=0.043828 Units=m
New Line.LINE36 Bus1=36 Bus2=37 phases=3 Linecode=3c_300_SAC_XC Length=0.043864 Units=m
New Line.LINE37 Bus1=37 Bus2=38 phases=3 Linecode=3c_300_SAC_XC Length=0.04383 Units=m
New Line.LINE38 Bus1=38 Bus2=39 phases=3 Linecode=3c_300_SAC_XC Length=0.043462 Units=m
New Line.LINE39 Bus1=39 Bus2=40 phases=3 Linecode=3c_300_SAC_XC Length=1.677 Units=m
New Line.LINE40 Bus1=40 Bus2=41 phases=3 Linecode=3c_300_SAC_XC Length=0.90239 Units=m
New Line.LINE41 Bus1=41 Bus2=42 phases=3 Linecode=3c_300_SAC_XC Length=0.26223 Units=m
New Line.LINE43 Bus1=42 Bus2=44 phases=3 Linecode=4c_.25 Length=14.0534 Units=m
New Line.LINE47 Bus1=44 Bus2=48 phases=3 Linecode=4c_.25 Length=0.95625 Units=m
New Line.LINE52 Bus1=48 Bus2=53 phases=3 Linecode=4c_.25 Length=5.2931 Units=m
New Line.LINE53 Bus1=48 Bus2=54 phases=3 Linecode=2c_.04 Length=11.9875 Units=m
New Line.LINE57 Bus1=53 Bus2=58 phases=3 Linecode=4c_.25 Length=86.6798 Units=m
New Line.LINE64 Bus1=58 Bus2=65 phases=3 Linecode=4c_.25 Length=0.15473 Units=m
New Line.LINE73 Bus1=65 Bus2=74 phases=3 Linecode=4c_.25 Length=22.084 Units=m
New Line.LINE81 Bus1=74 Bus2=82 phases=3 Linecode=4c_.25 Length=4.1914 Units=m
New Line.LINE89 Bus1=82 Bus2=90 phases=3 Linecode=4c_.25 Length=4.5933 Units=m
New Line.LINE97 Bus1=90 Bus2=98 phases=3 Linecode=4c_.25 Length=8.3605 Units=m
New Line.LINE105 Bus1=98 Bus2=106 phases=3 Linecode=4c_.25 Length=1.3061 Units=m
New Line.LINE109 Bus1=102 Bus2=110 phases=3 Linecode=2c_.04 Length=2.7893 Units=m
New Line.LINE114 Bus1=106 Bus2=115 phases=3 Linecode=4c_.25 Length=2.1271 Units=m
New Line.LINE117 Bus1=108 Bus2=118 phases=3 Linecode=2c_.04 Length=6.0342 Units=m
New Line.LINE122 Bus1=115 Bus2=123 phases=3 Linecode=4c_.25 Length=7.9132 Units=m
New Line.LINE128 Bus1=123 Bus2=129 phases=3 Linecode=4c_.25 Length=15.6083 Units=m
New Line.LINE134 Bus1=129 Bus2=135 phases=3 Linecode=4c_.25 Length=12.6322 Units=m
New Line.LINE140 Bus1=135 Bus2=141 phases=3 Linecode=4c_.25 Length=2.571 Units=m
New Line.LINE146 Bus1=141 Bus2=147 phases=3 Linecode=4c_.25 Length=1.5786 Units=m
New Line.LINE152 Bus1=147 Bus2=153 phases=3 Linecode=4c_.25 Length=2.7963 Units=m
New Line.LINE158 Bus1=153 Bus2=159 phases=3 Linecode=4c_.25 Length=0.59778 Units=m
New Line.LINE164 Bus1=159 Bus2=165 phases=3 Linecode=4c_.25 Length=0.35208 Units=m
New Line.LINE170 Bus1=165 Bus2=171 phases=3 Linecode=4c_.25 Length=0.6771 Units=m
New Line.LINE176 Bus1=171 Bus2=177 phases=3 Linecode=4c_.25 Length=1.6108 Units=m
New Line.LINE182 Bus1=177 Bus2=183 phases=3 Linecode=4c_.25 Length=1.4091 Units=m
New Line.LINE185 Bus1=179 Bus2=186 phases=3 Linecode=2c_.04 Length=4.9741 Units=m
New Line.LINE189 Bus1=183 Bus2=190 phases=3 Linecode=4c_.25 Length=2.1248 Units=m
New Line.LINE192 Bus1=187 Bus2=193 phases=3 Linecode=2c_.04 Length=3.9626 Units=m
New Line.LINE196 Bus1=190 Bus2=197 phases=3 Linecode=4c_.25 Length=1.4991 Units=m
New Line.LINE202 Bus1=197 Bus2=203 phases=3 Linecode=4c_.25 Length=3.7238 Units=m
New Line.LINE208 Bus1=203 Bus2=209 phases=3 Linecode=4c_.25 Length=2.5999 Units=m
New Line.LINE214 Bus1=209 Bus2=215 phases=3 Linecode=4c_.25 Length=3.1626 Units=m
New Line.LINE220 Bus1=215 Bus2=221 phases=3 Linecode=4c_.25 Length=1.5186 Units=m
New Line.LINE226 Bus1=221 Bus2=227 phases=3 Linecode=4c_.25 Length=1.577 Units=m
New Line.LINE232 Bus1=227 Bus2=233 phases=3 Linecode=4c_.25 Length=2.0776 Units=m
New Line.LINE238 Bus1=233 Bus2=239 phases=3 Linecode=4c_.25 Length=2.201 Units=m
New Line.LINE244 Bus1=239 Bus2=245 phases=3 Linecode=4c_.25 Length=0.76829 Units=m
New Line.LINE250 Bus1=245 Bus2=251 phases=3 Linecode=4c_.25 Length=1.5074 Units=m
New Line.LINE256 Bus1=251 Bus2=257 phases=3 Linecode=4c_.25 Length=1.3261 Units=m
New Line.LINE261 Bus1=257 Bus2=262 phases=3 Linecode=4c_.25 Length=1.2208 Units=m
New Line.LINE265 Bus1=262 Bus2=266 phases=3 Linecode=4c_.25 Length=1.1836 Units=m
New Line.LINE269 Bus1=266 Bus2=270 phases=3 Linecode=4c_.25 Length=0.88278 Units=m
New Line.LINE273 Bus1=270 Bus2=274 phases=3 Linecode=4c_.25 Length=0.80073 Units=m
New Line.LINE277 Bus1=274 Bus2=278 phases=3 Linecode=4c_.25 Length=0.75108 Units=m
New Line.LINE281 Bus1=278 Bus2=282 phases=3 Linecode=4c_.25 Length=0.73329 Units=m
New Line.LINE285 Bus1=282 Bus2=286 phases=3 Linecode=4c_.25 Length=1.8285 Units=m
New Line.LINE289 Bus1=286 Bus2=290 phases=3 Linecode=4c_.25 Length=1.0957 Units=m
New Line.LINE293 Bus1=290 Bus2=294 phases=3 Linecode=4c_.25 Length=1.8861 Units=m
New Line.LINE297 Bus1=294 Bus2=298 phases=3 Linecode=4c_.25 Length=1.3125 Units=m
New Line.LINE301 Bus1=298 Bus2=302 phases=3 Linecode=4c_.25 Length=0.96258 Units=m
New Line.LINE305 Bus1=302 Bus2=306 phases=3 Linecode=4c_.25 Length=1.2478 Units=m
New Line.LINE309 Bus1=306 Bus2=310 phases=3 Linecode=4c_.25 Length=0.30361 Units=m
New Line.LINE313 Bus1=310 Bus2=314 phases=3 Linecode=4c_.25 Length=0.32822 Units=m
New Line.LINE317 Bus1=314 Bus2=318 phases=3 Linecode=4c_.25 Length=0.30547 Units=m
New Line.LINE321 Bus1=318 Bus2=322 phases=3 Linecode=4c_.25 Length=0.59925 Units=m
New Line.LINE325 Bus1=322 Bus2=326 phases=3 Linecode=4c_.25 Length=0.45707 Units=m
New Line.LINE329 Bus1=326 Bus2=330 phases=3 Linecode=4c_.25 Length=0.16674 Units=m
New Line.LINE333 Bus1=330 Bus2=334 phases=3 Linecode=4c_.25 Length=0.2948 Units=m
New Line.LINE337 Bus1=334 Bus2=338 phases=3 Linecode=4c_.25 Length=0.44123 Units=m
New Line.LINE341 Bus1=338 Bus2=342 phases=3 Linecode=4c_.25 Length=0.28654 Units=m
New Line.LINE345 Bus1=342 Bus2=346 phases=3 Linecode=4c_.25 Length=0.23603 Units=m
New Line.LINE349 Bus1=346 Bus2=350 phases=3 Linecode=4c_.25 Length=0.53199 Units=m
New Line.LINE353 Bus1=350 Bus2=354 phases=3 Linecode=4c_.25 Length=0.32909 Units=m
New Line.LINE357 Bus1=354 Bus2=358 phases=3 Linecode=4c_.25 Length=0.48058 Units=m
New Line.LINE361 Bus1=358 Bus2=362 phases=3 Linecode=4c_.25 Length=0.14262 Units=m
New Line.LINE365 Bus1=362 Bus2=366 phases=3 Linecode=4c_.25 Length=0.3953 Units=m
New Line.LINE369 Bus1=366 Bus2=370 phases=3 Linecode=4c_.25 Length=0.61288 Units=m
New Line.LINE372 Bus1=370 Bus2=373 phases=3 Linecode=4c_.25 Length=21.8062 Units=m
New Line.LINE375 Bus1=373 Bus2=376 phases=3 Linecode=4c_.25 Length=0.44554 Units=m
New Line.LINE378 Bus1=376 Bus2=379 phases=3 Linecode=4c_.25 Length=0.42593 Units=m
New Line.LINE381 Bus1=379 Bus2=382 phases=3 Linecode=4c_.25 Length=0.28014 Units=m
New Line.LINE384 Bus1=382 Bus2=385 phases=3 Linecode=4c_.25 Length=0.3086 Units=m
New Line.LINE387 Bus1=385 Bus2=388 phases=3 Linecode=4c_.25 Length=0.26296 Units=m
New Line.LINE389 Bus1=388 Bus2=390 phases=3 Linecode=4c_.25 Length=0.43576 Units=m
New Line.LINE392 Bus1=390 Bus2=393 phases=3 Linecode=4c_.25 Length=1.4082 Units=m
New Line.LINE394 Bus1=393 Bus2=395 phases=3 Linecode=4c_.25 Length=0.41885 Units=m
New Line.LINE396 Bus1=395 Bus2=397 phases=3 Linecode=4c_.25 Length=0.49428 Units=m
New Line.LINE398 Bus1=397 Bus2=399 phases=3 Linecode=4c_.25 Length=2.0851 Units=m
New Line.LINE401 Bus1=399 Bus2=402 phases=3 Linecode=4c_.25 Length=6.4987 Units=m
New Line.LINE404 Bus1=402 Bus2=405 phases=3 Linecode=4c_.25 Length=8.1213 Units=m
New Line.LINE407 Bus1=405 Bus2=408 phases=3 Linecode=4c_.25 Length=12.3928 Units=m
New Line.LINE411 Bus1=408 Bus2=412 phases=3 Linecode=4c_.25 Length=5.7857 Units=m
New Line.LINE415 Bus1=412 Bus2=416 phases=3 Linecode=35_SAC_XC Length=0.36077 Units=m
New Line.LINE420 Bus1=416 Bus2=421 phases=3 Linecode=35_SAC_XC Length=0.07398 Units=m
New Line.LINE425 Bus1=421 Bus2=426 phases=3 Linecode=35_SAC_XC Length=0.073389 Units=m
New Line.LINE429 Bus1=426 Bus2=430 phases=3 Linecode=35_SAC_XC Length=0.074304 Units=m
New Line.LINE433 Bus1=430 Bus2=434 phases=3 Linecode=35_SAC_XC Length=0.073245 Units=m
New Line.LINE438 Bus1=434 Bus2=439 phases=3 Linecode=35_SAC_XC Length=0.073756 Units=m
New Line.LINE443 Bus1=439 Bus2=444 phases=3 Linecode=35_SAC_XC Length=0.073574 Units=m
New Line.LINE448 Bus1=444 Bus2=449 phases=3 Linecode=35_SAC_XC Length=0.073164 Units=m
New Line.LINE453 Bus1=449 Bus2=454 phases=3 Linecode=35_SAC_XC Length=2.0076 Units=m
New Line.LINE459 Bus1=454 Bus2=460 phases=3 Linecode=35_SAC_XC Length=0.70744 Units=m
New Line.LINECmpd_0 Bus1=187 Bus2=254 phases=3 Linecode=2c_.04 Length=16.323191 Units=m
New Line.LINECmpd_1 Bus1=108 Bus2=179 phases=3 Linecode=2c_.04 Length=7.70214 Units=m
New Line.LINECmpd_2 Bus1=54 Bus2=102 phases=3 Linecode=2c_.04 Length=5.75649 Units=m
New Line.LINECmpd_3 Bus1=102 Bus2=187 phases=3 Linecode=2c_.04 Length=8.471274 Units=m
New Line.LINECmpd_4 Bus1=179 Bus2=259 phases=3 Linecode=2c_.04 Length=13.891884 Units=m
New Line.LINECmpd_5 Bus1=54 Bus2=108 phases=3 Linecode=2c_.04 Length=2.68855 Units=m
