New Line.LINE29 Bus1=29 Bus2=30 phases=3 Linecode=5c_.1 Length=4.0453 Units=m
New Line.LINE32 Bus1=30 Bus2=33 phases=3 Linecode=5c_.1 Length=3.4496 Units=m
New Line.LINE94 Bus1=89 Bus2=95 phases=3 Linecode=5c_.1 Length=11.9463 Units=m
New Line.LINE117 Bus1=110 Bus2=118 phases=3 Linecode=5c_.1 Length=14.8117 Units=m
New Line.LINE118 Bus1=110 Bus2=119 phases=3 Linecode=5c_.1 Length=3.9325 Units=m
New Line.LINE127 Bus1=118 Bus2=128 phases=3 Linecode=5c_.1 Length=7.2907 Units=m
New Line.LINE138 Bus1=128 Bus2=139 phases=3 Linecode=5c_.1 Length=10.4189 Units=m
New Line.LINE151 Bus1=139 Bus2=152 phases=3 Linecode=5c_.1 Length=8.2743 Units=m
New Line.LINE162 Bus1=152 Bus2=163 phases=3 Linecode=5c_.1 Length=8.0963 Units=m
New Line.LINE176 Bus1=163 Bus2=177 phases=3 Linecode=5c_.1 Length=7.904 Units=m
New Line.LINE325 Bus1=322 Bus2=326 phases=3 Linecode=25_SAC_XC Length=0.11424 Units=m
New Line.LINE328 Bus1=326 Bus2=329 phases=3 Linecode=25_SAC_XC Length=2.52 Units=m
New Line.LINE350 Bus1=349 Bus2=351 phases=3 Linecode=5c_.1 Length=4.39 Units=m
New Line.LINE353 Bus1=351 Bus2=354 phases=3 Linecode=5c_.1 Length=4.0781 Units=m
New Line.LINE357 Bus1=354 Bus2=358 phases=3 Linecode=5c_.1 Length=4.9858 Units=m
New Line.LINE362 Bus1=358 Bus2=363 phases=3 Linecode=5c_.1 Length=4.8936 Units=m
New Line.LINE368 Bus1=363 Bus2=369 phases=3 Linecode=5c_.1 Length=6.1064 Units=m
New Line.LINE374 Bus1=369 Bus2=375 phases=3 Linecode=5c_.1 Length=15.2031 Units=m
New Line.LINE380 Bus1=375 Bus2=381 phases=3 Linecode=5c_.1 Length=5.2521 Units=m
New Line.LINE387 Bus1=381 Bus2=388 phases=3 Linecode=5c_.1 Length=1.4743 Units=m
New Line.LINE394 Bus1=388 Bus2=395 phases=3 Linecode=5c_.06 Length=4.3328 Units=m
New Line.LINE401 Bus1=395 Bus2=402 phases=3 Linecode=5c_.06 Length=4.8591 Units=m
New Line.LINECmpd_0 Bus1=33 Bus2=255 phases=3 Linecode=16_PSC Length=16.602064 Units=m
New Line.LINECmpd_1 Bus1=358 Bus2=400 phases=3 Linecode=2c_.0225 Length=12.21679 Units=m
New Line.LINECmpd_2 Bus1=402 Bus2=433 phases=3 Linecode=2c_.0225 Length=10.68714 Units=m
New Line.LINECmpd_3 Bus1=78 Bus2=277 phases=3 Linecode=16_PSC Length=16.546871 Units=m
New Line.LINECmpd_4 Bus1=1 Bus2=29 phases=3 Linecode=5c_.06 Length=24.419951 Units=m
New Line.LINECmpd_5 Bus1=163 Bus2=322 phases=3 Linecode=5c_.1 Length=59.543393 Units=m
New Line.LINECmpd_6 Bus1=46 Bus2=235 phases=3 Linecode=16_PSC Length=17.90537 Units=m
New Line.LINECmpd_7 Bus1=381 Bus2=425 phases=3 Linecode=25_SAC_XC Length=12.4676 Units=m
New Line.LINECmpd_8 Bus1=163 Bus2=204 phases=3 Linecode=.0225 Length=12.8793 Units=m
New Line.LINECmpd_9 Bus1=38 Bus2=76 phases=3 Linecode=2c_.0145 Length=12.80948 Units=m
New Line.LINECmpd_10 Bus1=349 Bus2=374 phases=3 Linecode=2c_.0225 Length=11.91334 Units=m
New Line.LINECmpd_11 Bus1=322 Bus2=349 phases=3 Linecode=5c_.1 Length=50.1819 Units=m
New Line.LINECmpd_12 Bus1=139 Bus2=248 phases=3 Linecode=16_PSC Length=12.431809 Units=m
New Line.LINECmpd_13 Bus1=95 Bus2=195 phases=3 Linecode=25_SAC_XC Length=14.75496 Units=m
New Line.LINECmpd_14 Bus1=118 Bus2=199 phases=3 Linecode=16_PSC Length=13.29812 Units=m
New Line.LINECmpd_15 Bus1=351 Bus2=387 phases=3 Linecode=2c_.0225 Length=11.83921 Units=m
New Line.LINECmpd_16 Bus1=412 Bus2=445 phases=3 Linecode=2c_.0225 Length=12.29249 Units=m
New Line.LINECmpd_17 Bus1=369 Bus2=405 phases=3 Linecode=2c_.0225 Length=12.41835 Units=m
New Line.LINECmpd_18 Bus1=363 Bus2=399 phases=3 Linecode=2c_.0225 Length=11.83048 Units=m
New Line.LINECmpd_19 Bus1=78 Bus2=89 phases=3 Linecode=5c_.1 Length=9.87563 Units=m
New Line.LINECmpd_20 Bus1=423 Bus2=435 phases=3 Linecode=5c_.06 Length=17.4341 Units=m
New Line.LINECmpd_21 Bus1=444 Bus2=448 phases=3 Linecode=2c_.0225 Length=17.6461 Units=m
New Line.LINECmpd_22 Bus1=30 Bus2=38 phases=3 Linecode=5c_.1 Length=15 Units=m
New Line.LINECmpd_23 Bus1=412 Bus2=423 phases=3 Linecode=5c_.06 Length=4.1401 Units=m
New Line.LINECmpd_24 Bus1=55 Bus2=78 phases=3 Linecode=5c_.1 Length=10.63754 Units=m
New Line.LINECmpd_25 Bus1=354 Bus2=394 phases=3 Linecode=2c_.0225 Length=13.02924 Units=m
New Line.LINECmpd_26 Bus1=38 Bus2=46 phases=3 Linecode=5c_.1 Length=7.8779 Units=m
New Line.LINECmpd_27 Bus1=89 Bus2=144 phases=3 Linecode=25_SAC_XC Length=13.996288 Units=m
New Line.LINECmpd_28 Bus1=395 Bus2=421 phases=3 Linecode=2c_.0225 Length=12.23632 Units=m
New Line.LINECmpd_29 Bus1=375 Bus2=415 phases=3 Linecode=2c_.0225 Length=11.80815 Units=m
New Line.LINECmpd_30 Bus1=435 Bus2=440 phases=3 Linecode=2c_.0225 Length=15.3707 Units=m
New Line.LINECmpd_31 Bus1=95 Bus2=110 phases=3 Linecode=5c_.1 Length=4.212621 Units=m
New Line.LINECmpd_32 Bus1=435 Bus2=444 phases=3 Linecode=5c_.06 Length=9.5045 Units=m
New Line.LINECmpd_33 Bus1=152 Bus2=174 phases=3 Linecode=2c_.0145 Length=13.6103 Units=m
New Line.LINECmpd_34 Bus1=119 Bus2=142 phases=3 Linecode=2c_.0145 Length=15.8126 Units=m
New Line.LINECmpd_35 Bus1=55 Bus2=68 phases=3 Linecode=2c_.0145 Length=14.588 Units=m
New Line.LINECmpd_36 Bus1=423 Bus2=431 phases=3 Linecode=2c_.0225 Length=11.8907 Units=m
New Line.LINECmpd_37 Bus1=177 Bus2=205 phases=3 Linecode=2c_.0145 Length=12.5524 Units=m
New Line.LINECmpd_38 Bus1=46 Bus2=55 phases=3 Linecode=5c_.1 Length=9.6487 Units=m
New Line.LINECmpd_39 Bus1=128 Bus2=150 phases=3 Linecode=2c_.0145 Length=13.3844 Units=m
New Line.LINECmpd_40 Bus1=402 Bus2=412 phases=3 Linecode=5c_.06 Length=6.4783 Units=m
