New Line.LINE54_1 Bus1=54_1 Bus2=54_2 phases=3 Linecode=5c_.06 Length=0.41565 Units=m
New Line.LINE54_2 Bus1=54_2 Bus2=54_3 phases=3 Linecode=5c_.06 Length=0.031384 Units=m
New Line.LINE54_3 Bus1=54_3 Bus2=54_4 phases=3 Linecode=5c_.06 Length=0.044408 Units=m
New Line.LINE54_4 Bus1=54_4 Bus2=54_5 phases=3 Linecode=5c_.06 Length=0.058729 Units=m
New Line.LINE54_5 Bus1=54_5 Bus2=54_6 phases=3 Linecode=5c_.06 Length=0.049243 Units=m
New Line.LINE54_6 Bus1=54_6 Bus2=54_7 phases=3 Linecode=5c_.06 Length=0.038627 Units=m
New Line.LINE54_7 Bus1=54_7 Bus2=54_8 phases=3 Linecode=5c_.06 Length=0.038639 Units=m
New Line.LINE54_8 Bus1=54_8 Bus2=54_9 phases=3 Linecode=5c_.06 Length=0.03864 Units=m
New Line.LINE54_9 Bus1=54_9 Bus2=54_10 phases=3 Linecode=5c_.06 Length=0.035354 Units=m
New Line.LINE54_10 Bus1=54_10 Bus2=54_11 phases=3 Linecode=5c_.06 Length=0.076923 Units=m
New Line.LINE54_11 Bus1=54_11 Bus2=54_12 phases=3 Linecode=5c_.06 Length=1.9035 Units=m
New Line.LINE54_12 Bus1=54_12 Bus2=54_13 phases=3 Linecode=5c_.06 Length=0.045879 Units=m
New Line.LINE54_13 Bus1=54_13 Bus2=54_14 phases=3 Linecode=5c_.06 Length=0.033016 Units=m
New Line.LINE54_14 Bus1=54_14 Bus2=54_15 phases=3 Linecode=5c_.06 Length=0.50554 Units=m
New Line.LINE54_15 Bus1=54_15 Bus2=54_16 phases=3 Linecode=5c_.06 Length=0.0436 Units=m
New Line.LINE54_16 Bus1=54_16 Bus2=54_17 phases=3 Linecode=5c_.06 Length=0.07184 Units=m
New Line.LINE54_17 Bus1=54_17 Bus2=54_18 phases=3 Linecode=5c_.06 Length=5.0564 Units=m
New Line.LINE54_18 Bus1=54_18 Bus2=54_19 phases=3 Linecode=5c_.06 Length=3.4914 Units=m
New Line.LINE54_19 Bus1=54_19 Bus2=54_20 phases=3 Linecode=5c_.06 Length=10.5823 Units=m
New Line.LINE54_20 Bus1=54_20 Bus2=54_21 phases=3 Linecode=5c_.06 Length=0.91068 Units=m
New Line.LINE54_21 Bus1=54_21 Bus2=54_22 phases=3 Linecode=5c_.06 Length=0.22632 Units=m
New Line.LINE54_22 Bus1=54_22 Bus2=54_23 phases=3 Linecode=5c_.06 Length=0.10717 Units=m
New Line.LINE54_23 Bus1=54_23 Bus2=54_24 phases=3 Linecode=5c_.06 Length=0.10218 Units=m
New Line.LINE54_24 Bus1=54_24 Bus2=54_25 phases=3 Linecode=5c_.06 Length=0.074433 Units=m
New Line.LINE54_25 Bus1=54_25 Bus2=54_26 phases=3 Linecode=5c_.06 Length=0.057306 Units=m
New Line.LINE54_26 Bus1=54_26 Bus2=54_27 phases=3 Linecode=5c_.06 Length=0.072139 Units=m
New Line.LINE54_27 Bus1=54_27 Bus2=54_28 phases=3 Linecode=5c_.06 Length=0.060441 Units=m
New Line.LINE54_28 Bus1=54_28 Bus2=54_29 phases=3 Linecode=5c_.06 Length=0.24821 Units=m
New Line.LINE54_29 Bus1=54_29 Bus2=54_30 phases=3 Linecode=5c_.1 Length=4.0453 Units=m
New Line.LINE54_30 Bus1=54_29 Bus2=54_31 phases=3 Linecode=5c_.1 Length=4.0453 Units=m
New Line.LINE54_31 Bus1=54_30 Bus2=54_32 phases=3 Linecode=5c_.1 Length=7.5756 Units=m
New Line.LINE54_32 Bus1=54_30 Bus2=54_33 phases=3 Linecode=5c_.1 Length=3.4496 Units=m
New Line.LINE54_33 Bus1=54_32 Bus2=54_34 phases=3 Linecode=5c_.1 Length=2.3257 Units=m
New Line.LINE54_34 Bus1=54_32 Bus2=54_35 phases=3 Linecode=5c_.1 Length=2.3257 Units=m
New Line.LINE54_35 Bus1=54_32 Bus2=54_36 phases=3 Linecode=5c_.1 Length=4.126 Units=m
New Line.LINE54_36 Bus1=54_33 Bus2=54_37 phases=3 Linecode=16_PSC Length=0.36508 Units=m
New Line.LINE54_37 Bus1=54_34 Bus2=54_38 phases=3 Linecode=5c_.1 Length=5.0987 Units=m
New Line.LINE54_38 Bus1=54_34 Bus2=54_39 phases=3 Linecode=5c_.1 Length=1.979 Units=m
New Line.LINE54_39 Bus1=54_34 Bus2=54_40 phases=3 Linecode=5c_.1 Length=5.0987 Units=m
New Line.LINE54_40 Bus1=54_37 Bus2=54_41 phases=3 Linecode=16_PSC Length=0.18019 Units=m
New Line.LINE54_41 Bus1=54_38 Bus2=54_42 phases=3 Linecode=5c_.1 Length=2.1086 Units=m
New Line.LINE54_42 Bus1=54_38 Bus2=54_43 phases=3 Linecode=2c_.0145 Length=0.31603 Units=m
New Line.LINE54_43 Bus1=54_38 Bus2=54_44 phases=3 Linecode=5c_.1 Length=2.1086 Units=m
New Line.LINE54_44 Bus1=54_41 Bus2=54_45 phases=3 Linecode=16_PSC Length=0.0622 Units=m
New Line.LINE54_45 Bus1=54_42 Bus2=54_46 phases=3 Linecode=5c_.1 Length=5.7693 Units=m
New Line.LINE54_46 Bus1=54_42 Bus2=54_47 phases=3 Linecode=5c_.1 Length=5.7693 Units=m
New Line.LINE54_47 Bus1=54_43 Bus2=54_48 phases=3 Linecode=2c_.0145 Length=0.14796 Units=m
New Line.LINE54_48 Bus1=54_45 Bus2=54_49 phases=3 Linecode=16_PSC Length=0.058941 Units=m
New Line.LINE54_49 Bus1=54_46 Bus2=54_50 phases=3 Linecode=5c_.1 Length=5.2814 Units=m
New Line.LINE54_50 Bus1=54_46 Bus2=54_51 phases=3 Linecode=16_PSC Length=0.69584 Units=m
New Line.LINE54_51 Bus1=54_46 Bus2=54_52 phases=3 Linecode=5c_.1 Length=5.2814 Units=m
New Line.LINE54_52 Bus1=54_48 Bus2=54_53 phases=3 Linecode=2c_.0145 Length=0.14182 Units=m
New Line.LINE54_53 Bus1=54_49 Bus2=54_54 phases=3 Linecode=16_PSC Length=0.060406 Units=m
New Line.LINE54_54 Bus1=54_50 Bus2=54_55 phases=3 Linecode=5c_.1 Length=4.3673 Units=m
New Line.LINE54_55 Bus1=54_50 Bus2=54_56 phases=3 Linecode=5c_.1 Length=4.3673 Units=m
New Line.LINE54_56 Bus1=54_51 Bus2=54_57 phases=3 Linecode=16_PSC Length=0.40792 Units=m
New Line.LINE54_57 Bus1=54_53 Bus2=54_58 phases=3 Linecode=2c_.0145 Length=0.24807 Units=m
New Line.LINE54_58 Bus1=54_54 Bus2=54_59 phases=3 Linecode=16_PSC Length=0.075214 Units=m
New Line.LINE54_59 Bus1=54_55 Bus2=54_60 phases=3 Linecode=5c_.1 Length=2.9134 Units=m
New Line.LINE54_60 Bus1=54_55 Bus2=54_61 phases=3 Linecode=2c_.0145 Length=9.5671 Units=m
New Line.LINE54_61 Bus1=54_55 Bus2=54_62 phases=3 Linecode=5c_.1 Length=2.9134 Units=m
New Line.LINE54_62 Bus1=54_57 Bus2=54_63 phases=3 Linecode=16_PSC Length=0.34205 Units=m
New Line.LINE54_63 Bus1=54_58 Bus2=54_64 phases=3 Linecode=2c_.0145 Length=1.4232 Units=m
New Line.LINE54_64 Bus1=54_59 Bus2=54_65 phases=3 Linecode=16_PSC Length=0.11741 Units=m
New Line.LINE54_65 Bus1=54_60 Bus2=54_66 phases=3 Linecode=5c_.1 Length=3.3228 Units=m
New Line.LINE54_66 Bus1=54_60 Bus2=54_67 phases=3 Linecode=5c_.1 Length=3.3228 Units=m
New Line.LINE54_67 Bus1=54_61 Bus2=54_68 phases=3 Linecode=2c_.0145 Length=5.0209 Units=m
New Line.LINE54_68 Bus1=54_63 Bus2=54_69 phases=3 Linecode=16_PSC Length=0.17888 Units=m
New Line.LINE54_69 Bus1=54_64 Bus2=54_70 phases=3 Linecode=2c_.0145 Length=4.7945 Units=m
New Line.LINE54_70 Bus1=54_65 Bus2=54_71 phases=3 Linecode=16_PSC Length=0.091401 Units=m
New Line.LINE54_71 Bus1=54_66 Bus2=54_72 phases=3 Linecode=5c_.1 Length=3.6184 Units=m
New Line.LINE54_72 Bus1=54_66 Bus2=54_73 phases=3 Linecode=5c_.1 Length=0.27295 Units=m
New Line.LINE54_73 Bus1=54_66 Bus2=54_74 phases=3 Linecode=5c_.1 Length=3.6184 Units=m
New Line.LINE54_74 Bus1=54_69 Bus2=54_75 phases=3 Linecode=16_PSC Length=0.092198 Units=m
New Line.LINE54_75 Bus1=54_70 Bus2=54_76 phases=3 Linecode=2c_.0145 Length=5.7379 Units=m
New Line.LINE54_76 Bus1=54_71 Bus2=54_77 phases=3 Linecode=16_PSC Length=0.071119 Units=m
New Line.LINE54_77 Bus1=54_72 Bus2=54_78 phases=3 Linecode=5c_.1 Length=0.78294 Units=m
New Line.LINE54_78 Bus1=54_72 Bus2=54_79 phases=3 Linecode=5c_.1 Length=0.78294 Units=m
New Line.LINE54_79 Bus1=54_73 Bus2=54_80 phases=3 Linecode=5c_.1 Length=0.18028 Units=m
New Line.LINE54_80 Bus1=54_75 Bus2=54_81 phases=3 Linecode=16_PSC Length=0.10295 Units=m
New Line.LINE54_81 Bus1=54_77 Bus2=54_82 phases=3 Linecode=16_PSC Length=0.080056 Units=m
New Line.LINE54_82 Bus1=54_78 Bus2=54_83 phases=3 Linecode=5c_.1 Length=9.282 Units=m
New Line.LINE54_83 Bus1=54_78 Bus2=54_84 phases=3 Linecode=16_PSC Length=0.40804 Units=m
New Line.LINE54_84 Bus1=54_78 Bus2=54_85 phases=3 Linecode=5c_.1 Length=9.282 Units=m
New Line.LINE54_85 Bus1=54_80 Bus2=54_86 phases=3 Linecode=5c_.1 Length=0.11045 Units=m
New Line.LINE54_86 Bus1=54_81 Bus2=54_87 phases=3 Linecode=16_PSC Length=6.3044 Units=m
New Line.LINE54_87 Bus1=54_82 Bus2=54_88 phases=3 Linecode=16_PSC Length=3.059 Units=m
New Line.LINE54_88 Bus1=54_83 Bus2=54_89 phases=3 Linecode=5c_.1 Length=0.59363 Units=m
New Line.LINE54_89 Bus1=54_83 Bus2=54_90 phases=3 Linecode=5c_.1 Length=0.59363 Units=m
New Line.LINE54_90 Bus1=54_84 Bus2=54_91 phases=3 Linecode=16_PSC Length=0.19235 Units=m
New Line.LINE54_91 Bus1=54_86 Bus2=54_92 phases=3 Linecode=5c_.1 Length=0.070711 Units=m
New Line.LINE54_92 Bus1=54_87 Bus2=54_93 phases=3 Linecode=16_PSC Length=0.080622 Units=m
New Line.LINE54_93 Bus1=54_88 Bus2=54_94 phases=3 Linecode=16_PSC Length=1.1504 Units=m
New Line.LINE54_94 Bus1=54_89 Bus2=54_95 phases=3 Linecode=5c_.1 Length=11.9463 Units=m
New Line.LINE54_95 Bus1=54_89 Bus2=54_96 phases=3 Linecode=25_SAC_XC Length=0.20025 Units=m
New Line.LINE54_96 Bus1=54_89 Bus2=54_97 phases=3 Linecode=5c_.1 Length=11.9463 Units=m
New Line.LINE54_97 Bus1=54_91 Bus2=54_98 phases=3 Linecode=16_PSC Length=0.080623 Units=m
New Line.LINE54_98 Bus1=54_92 Bus2=54_99 phases=3 Linecode=5c_.1 Length=0.067082 Units=m
New Line.LINE54_99 Bus1=54_93 Bus2=54_100 phases=3 Linecode=16_PSC Length=0.090554 Units=m
New Line.LINE54_100 Bus1=54_94 Bus2=54_101 phases=3 Linecode=16_PSC Length=0.40003 Units=m
New Line.LINE54_101 Bus1=54_95 Bus2=54_102 phases=3 Linecode=5c_.1 Length=0.044721 Units=m
New Line.LINE54_102 Bus1=54_95 Bus2=54_103 phases=3 Linecode=25_SAC_XC Length=0.39294 Units=m
New Line.LINE54_103 Bus1=54_95 Bus2=54_104 phases=3 Linecode=5c_.1 Length=0.044721 Units=m
New Line.LINE54_104 Bus1=54_96 Bus2=54_105 phases=3 Linecode=25_SAC_XC Length=0.11402 Units=m
New Line.LINE54_105 Bus1=54_98 Bus2=54_106 phases=3 Linecode=16_PSC Length=0.094868 Units=m
New Line.LINE54_106 Bus1=54_99 Bus2=54_107 phases=3 Linecode=5c_.1 Length=0.049999 Units=m
New Line.LINE54_107 Bus1=54_100 Bus2=54_108 phases=3 Linecode=16_PSC Length=0.14318 Units=m
New Line.LINE54_108 Bus1=54_101 Bus2=54_109 phases=3 Linecode=16_PSC Length=0.41013 Units=m
New Line.LINE54_109 Bus1=54_102 Bus2=54_110 phases=3 Linecode=5c_.1 Length=4.1679 Units=m
New Line.LINE54_110 Bus1=54_102 Bus2=54_111 phases=3 Linecode=5c_.1 Length=4.1679 Units=m
New Line.LINE54_111 Bus1=54_103 Bus2=54_112 phases=3 Linecode=25_SAC_XC Length=0.14142 Units=m
New Line.LINE54_112 Bus1=54_105 Bus2=54_113 phases=3 Linecode=25_SAC_XC Length=0.086023 Units=m
New Line.LINE54_113 Bus1=54_106 Bus2=54_114 phases=3 Linecode=16_PSC Length=0.11705 Units=m
New Line.LINE54_114 Bus1=54_107 Bus2=54_115 phases=3 Linecode=5c_.1 Length=0.082461 Units=m
New Line.LINE54_115 Bus1=54_108 Bus2=54_116 phases=3 Linecode=16_PSC Length=0.10817 Units=m
New Line.LINE54_116 Bus1=54_109 Bus2=54_117 phases=3 Linecode=16_PSC Length=0.17603 Units=m
New Line.LINE54_117 Bus1=54_110 Bus2=54_118 phases=3 Linecode=5c_.1 Length=14.8117 Units=m
New Line.LINE54_118 Bus1=54_110 Bus2=54_119 phases=3 Linecode=5c_.1 Length=3.9325 Units=m
New Line.LINE54_119 Bus1=54_112 Bus2=54_120 phases=3 Linecode=25_SAC_XC Length=0.12 Units=m
New Line.LINE54_120 Bus1=54_113 Bus2=54_121 phases=3 Linecode=25_SAC_XC Length=0.092195 Units=m
New Line.LINE54_121 Bus1=54_114 Bus2=54_122 phases=3 Linecode=16_PSC Length=0.22627 Units=m
New Line.LINE54_122 Bus1=54_115 Bus2=54_123 phases=3 Linecode=5c_.1 Length=0.08 Units=m
New Line.LINE54_123 Bus1=54_116 Bus2=54_124 phases=3 Linecode=16_PSC Length=0.13 Units=m
New Line.LINE54_124 Bus1=54_117 Bus2=54_125 phases=3 Linecode=16_PSC Length=0.16819 Units=m
New Line.LINE54_125 Bus1=54_118 Bus2=54_126 phases=3 Linecode=16_PSC Length=0.31257 Units=m
New Line.LINE54_126 Bus1=54_118 Bus2=54_127 phases=3 Linecode=5c_.1 Length=10.8792 Units=m
New Line.LINE54_127 Bus1=54_118 Bus2=54_128 phases=3 Linecode=5c_.1 Length=7.2907 Units=m
New Line.LINE54_128 Bus1=54_118 Bus2=54_129 phases=3 Linecode=5c_.1 Length=1.3995 Units=m
New Line.LINE54_129 Bus1=54_119 Bus2=54_130 phases=3 Linecode=2c_.0145 Length=9.2395 Units=m
New Line.LINE54_130 Bus1=54_120 Bus2=54_131 phases=3 Linecode=25_SAC_XC Length=0.11705 Units=m
New Line.LINE54_131 Bus1=54_121 Bus2=54_132 phases=3 Linecode=25_SAC_XC Length=7.7798 Units=m
New Line.LINE54_132 Bus1=54_122 Bus2=54_133 phases=3 Linecode=16_PSC Length=0.13454 Units=m
New Line.LINE54_133 Bus1=54_123 Bus2=54_134 phases=3 Linecode=5c_.1 Length=0.090554 Units=m
New Line.LINE54_134 Bus1=54_124 Bus2=54_135 phases=3 Linecode=16_PSC Length=2.3808 Units=m
New Line.LINE54_135 Bus1=54_125 Bus2=54_136 phases=3 Linecode=16_PSC Length=0.10394 Units=m
New Line.LINE54_136 Bus1=54_126 Bus2=54_137 phases=3 Linecode=16_PSC Length=0.14 Units=m
New Line.LINE54_137 Bus1=54_128 Bus2=54_138 phases=3 Linecode=2c_.0145 Length=8.4557 Units=m
New Line.LINE54_138 Bus1=54_128 Bus2=54_139 phases=3 Linecode=5c_.1 Length=10.4189 Units=m
New Line.LINE54_139 Bus1=54_129 Bus2=54_140 phases=3 Linecode=4_XC Length=0.44161 Units=m
New Line.LINE54_140 Bus1=54_129 Bus2=54_141 phases=3 Linecode=5c_.1 Length=16.3101 Units=m
New Line.LINE54_141 Bus1=54_130 Bus2=54_142 phases=3 Linecode=2c_.0145 Length=6.5731 Units=m
New Line.LINE54_142 Bus1=54_131 Bus2=54_143 phases=3 Linecode=25_SAC_XC Length=0.14866 Units=m
New Line.LINE54_143 Bus1=54_132 Bus2=54_144 phases=3 Linecode=25_SAC_XC Length=5.724 Units=m
New Line.LINE54_144 Bus1=54_133 Bus2=54_145 phases=3 Linecode=16_PSC Length=0.17205 Units=m
New Line.LINE54_145 Bus1=54_134 Bus2=54_146 phases=3 Linecode=5c_.1 Length=0.092195 Units=m
New Line.LINE54_146 Bus1=54_135 Bus2=54_147 phases=3 Linecode=16_PSC Length=0.21024 Units=m
New Line.LINE54_147 Bus1=54_136 Bus2=54_148 phases=3 Linecode=16_PSC Length=0.16824 Units=m
New Line.LINE54_148 Bus1=54_137 Bus2=54_149 phases=3 Linecode=16_PSC Length=0.1044 Units=m
New Line.LINE54_149 Bus1=54_138 Bus2=54_150 phases=3 Linecode=2c_.0145 Length=4.9287 Units=m
New Line.LINE54_150 Bus1=54_139 Bus2=54_151 phases=3 Linecode=16_PSC Length=0.41437 Units=m
New Line.LINE54_151 Bus1=54_139 Bus2=54_152 phases=3 Linecode=5c_.1 Length=8.2743 Units=m
New Line.LINE54_152 Bus1=54_139 Bus2=54_153 phases=3 Linecode=5c_.1 Length=11.615 Units=m
New Line.LINE54_153 Bus1=54_140 Bus2=54_154 phases=3 Linecode=4_XC Length=0.34366 Units=m
New Line.LINE54_154 Bus1=54_143 Bus2=54_155 phases=3 Linecode=25_SAC_XC Length=0.26249 Units=m
New Line.LINE54_155 Bus1=54_145 Bus2=54_156 phases=3 Linecode=16_PSC Length=0.28601 Units=m
New Line.LINE54_156 Bus1=54_146 Bus2=54_157 phases=3 Linecode=5c_.1 Length=0.15811 Units=m
New Line.LINE54_157 Bus1=54_147 Bus2=54_158 phases=3 Linecode=16_PSC Length=0.1118 Units=m
New Line.LINE54_158 Bus1=54_148 Bus2=54_159 phases=3 Linecode=16_PSC Length=0.1023 Units=m
New Line.LINE54_159 Bus1=54_149 Bus2=54_160 phases=3 Linecode=16_PSC Length=0.16643 Units=m
New Line.LINE54_160 Bus1=54_151 Bus2=54_161 phases=3 Linecode=16_PSC Length=0.094868 Units=m
New Line.LINE54_161 Bus1=54_152 Bus2=54_162 phases=3 Linecode=2c_.0145 Length=8.6746 Units=m
New Line.LINE54_162 Bus1=54_152 Bus2=54_163 phases=3 Linecode=5c_.1 Length=8.0963 Units=m
New Line.LINE54_163 Bus1=54_153 Bus2=54_164 phases=3 Linecode=4_XC Length=0.43786 Units=m
New Line.LINE54_164 Bus1=54_153 Bus2=54_165 phases=3 Linecode=5c_.1 Length=4.7556 Units=m
New Line.LINE54_165 Bus1=54_154 Bus2=54_166 phases=3 Linecode=4_XC Length=0.34015 Units=m
New Line.LINE54_166 Bus1=54_155 Bus2=54_167 phases=3 Linecode=25_SAC_XC Length=0.8092 Units=m
New Line.LINE54_167 Bus1=54_156 Bus2=54_168 phases=3 Linecode=16_PSC Length=4.6439 Units=m
New Line.LINE54_168 Bus1=54_157 Bus2=54_169 phases=3 Linecode=5c_.1 Length=0.40249 Units=m
New Line.LINE54_169 Bus1=54_158 Bus2=54_170 phases=3 Linecode=16_PSC Length=0.070711 Units=m
New Line.LINE54_170 Bus1=54_159 Bus2=54_171 phases=3 Linecode=16_PSC Length=0.2708 Units=m
New Line.LINE54_171 Bus1=54_160 Bus2=54_172 phases=3 Linecode=16_PSC Length=0.24042 Units=m
New Line.LINE54_172 Bus1=54_161 Bus2=54_173 phases=3 Linecode=16_PSC Length=0.080624 Units=m
New Line.LINE54_173 Bus1=54_162 Bus2=54_174 phases=3 Linecode=2c_.0145 Length=4.9357 Units=m
New Line.LINE54_174 Bus1=54_163 Bus2=54_175 phases=3 Linecode=5c_.1 Length=10.3231 Units=m
New Line.LINE54_175 Bus1=54_163 Bus2=54_176 phases=3 Linecode=.0225 Length=5.8718 Units=m
New Line.LINE54_176 Bus1=54_163 Bus2=54_177 phases=3 Linecode=5c_.1 Length=7.904 Units=m
New Line.LINE54_177 Bus1=54_164 Bus2=54_178 phases=3 Linecode=4_XC Length=0.24166 Units=m
New Line.LINE54_178 Bus1=54_166 Bus2=54_179 phases=3 Linecode=4_XC Length=0.33734 Units=m
New Line.LINE54_179 Bus1=54_167 Bus2=54_180 phases=3 Linecode=25_SAC_XC Length=7.2621 Units=m
New Line.LINE54_180 Bus1=54_168 Bus2=54_181 phases=3 Linecode=16_PSC Length=0.23601 Units=m
New Line.LINE54_181 Bus1=54_170 Bus2=54_182 phases=3 Linecode=16_PSC Length=0.076158 Units=m
New Line.LINE54_182 Bus1=54_171 Bus2=54_183 phases=3 Linecode=16_PSC Length=0.75534 Units=m
New Line.LINE54_183 Bus1=54_172 Bus2=54_184 phases=3 Linecode=16_PSC Length=6.9603 Units=m
New Line.LINE54_184 Bus1=54_173 Bus2=54_185 phases=3 Linecode=16_PSC Length=0.07071 Units=m
New Line.LINE54_185 Bus1=54_175 Bus2=54_186 phases=3 Linecode=5c_.1 Length=0.72139 Units=m
New Line.LINE54_186 Bus1=54_175 Bus2=54_187 phases=3 Linecode=5c_.1 Length=0.72139 Units=m
New Line.LINE54_187 Bus1=54_175 Bus2=54_188 phases=3 Linecode=5c_.1 Length=0.44598 Units=m
New Line.LINE54_188 Bus1=54_175 Bus2=54_189 phases=3 Linecode=5c_.1 Length=2.4191 Units=m
New Line.LINE54_189 Bus1=54_176 Bus2=54_190 phases=3 Linecode=.0225 Length=1.451 Units=m
New Line.LINE54_190 Bus1=54_177 Bus2=54_191 phases=3 Linecode=2c_.0145 Length=8.144 Units=m
New Line.LINE54_191 Bus1=54_177 Bus2=54_192 phases=3 Linecode=5c_.1 Length=8.144 Units=m
New Line.LINE54_192 Bus1=54_178 Bus2=54_193 phases=3 Linecode=4_XC Length=0.23345 Units=m
New Line.LINE54_193 Bus1=54_179 Bus2=54_194 phases=3 Linecode=4_XC Length=0.33615 Units=m
New Line.LINE54_194 Bus1=54_180 Bus2=54_195 phases=3 Linecode=25_SAC_XC Length=5.5011 Units=m
New Line.LINE54_195 Bus1=54_181 Bus2=54_196 phases=3 Linecode=16_PSC Length=0.18028 Units=m
New Line.LINE54_196 Bus1=54_182 Bus2=54_197 phases=3 Linecode=16_PSC Length=0.060827 Units=m
New Line.LINE54_197 Bus1=54_183 Bus2=54_198 phases=3 Linecode=16_PSC Length=1.3136 Units=m
New Line.LINE54_198 Bus1=54_184 Bus2=54_199 phases=3 Linecode=16_PSC Length=5.374 Units=m
New Line.LINE54_199 Bus1=54_185 Bus2=54_200 phases=3 Linecode=16_PSC Length=0.12369 Units=m
New Line.LINE54_200 Bus1=54_186 Bus2=54_201 phases=3 Linecode=5c_.1 Length=3.4243 Units=m
New Line.LINE54_201 Bus1=54_186 Bus2=54_202 phases=3 Linecode=5c_.1 Length=3.4243 Units=m
New Line.LINE54_202 Bus1=54_188 Bus2=54_203 phases=3 Linecode=5c_.1 Length=0.17692 Units=m
New Line.LINE54_203 Bus1=54_190 Bus2=54_204 phases=3 Linecode=.0225 Length=5.5565 Units=m
New Line.LINE54_204 Bus1=54_191 Bus2=54_205 phases=3 Linecode=2c_.0145 Length=4.4084 Units=m
New Line.LINE54_205 Bus1=54_193 Bus2=54_206 phases=3 Linecode=4_XC Length=0.24021 Units=m
New Line.LINE54_206 Bus1=54_194 Bus2=54_207 phases=3 Linecode=4_XC Length=0.37696 Units=m
New Line.LINE54_207 Bus1=54_196 Bus2=54_208 phases=3 Linecode=16_PSC Length=0.23195 Units=m
New Line.LINE54_208 Bus1=54_197 Bus2=54_209 phases=3 Linecode=16_PSC Length=0.11045 Units=m
New Line.LINE54_209 Bus1=54_198 Bus2=54_210 phases=3 Linecode=16_PSC Length=0.10962 Units=m
New Line.LINE54_210 Bus1=54_200 Bus2=54_211 phases=3 Linecode=16_PSC Length=0.12083 Units=m
New Line.LINE54_211 Bus1=54_201 Bus2=54_212 phases=3 Linecode=5c_.1 Length=0.37162 Units=m
New Line.LINE54_212 Bus1=54_201 Bus2=54_213 phases=3 Linecode=5c_.1 Length=0.37162 Units=m
New Line.LINE54_213 Bus1=54_203 Bus2=54_214 phases=3 Linecode=5c_.1 Length=0.24759 Units=m
New Line.LINE54_214 Bus1=54_206 Bus2=54_215 phases=3 Linecode=4_XC Length=0.24331 Units=m
New Line.LINE54_215 Bus1=54_207 Bus2=54_216 phases=3 Linecode=4_XC Length=0.36878 Units=m
New Line.LINE54_216 Bus1=54_208 Bus2=54_217 phases=3 Linecode=16_PSC Length=0.21213 Units=m
New Line.LINE54_217 Bus1=54_209 Bus2=54_218 phases=3 Linecode=16_PSC Length=0.14318 Units=m
New Line.LINE54_218 Bus1=54_210 Bus2=54_219 phases=3 Linecode=16_PSC Length=0.067898 Units=m
New Line.LINE54_219 Bus1=54_211 Bus2=54_220 phases=3 Linecode=16_PSC Length=0.092197 Units=m
New Line.LINE54_220 Bus1=54_212 Bus2=54_221 phases=3 Linecode=5c_.1 Length=0.66491 Units=m
New Line.LINE54_221 Bus1=54_212 Bus2=54_222 phases=3 Linecode=5c_.1 Length=0.66491 Units=m
New Line.LINE54_222 Bus1=54_214 Bus2=54_223 phases=3 Linecode=5c_.1 Length=0.25 Units=m
New Line.LINE54_223 Bus1=54_215 Bus2=54_224 phases=3 Linecode=4_XC Length=0.23409 Units=m
New Line.LINE54_224 Bus1=54_216 Bus2=54_225 phases=3 Linecode=4_XC Length=0.38053 Units=m
New Line.LINE54_225 Bus1=54_217 Bus2=54_226 phases=3 Linecode=16_PSC Length=0.19416 Units=m
New Line.LINE54_226 Bus1=54_218 Bus2=54_227 phases=3 Linecode=16_PSC Length=0.55714 Units=m
New Line.LINE54_227 Bus1=54_219 Bus2=54_228 phases=3 Linecode=16_PSC Length=0.079849 Units=m
New Line.LINE54_228 Bus1=54_220 Bus2=54_229 phases=3 Linecode=16_PSC Length=0.12042 Units=m
New Line.LINE54_229 Bus1=54_221 Bus2=54_230 phases=3 Linecode=5c_.1 Length=0.58523 Units=m
New Line.LINE54_230 Bus1=54_221 Bus2=54_231 phases=3 Linecode=5c_.1 Length=0.58523 Units=m
New Line.LINE54_231 Bus1=54_223 Bus2=54_232 phases=3 Linecode=5c_.1 Length=0.52802 Units=m
New Line.LINE54_232 Bus1=54_224 Bus2=54_233 phases=3 Linecode=4_XC Length=0.24698 Units=m
New Line.LINE54_233 Bus1=54_226 Bus2=54_234 phases=3 Linecode=16_PSC Length=0.21932 Units=m
New Line.LINE54_234 Bus1=54_227 Bus2=54_235 phases=3 Linecode=16_PSC Length=5.5073 Units=m
New Line.LINE54_235 Bus1=54_228 Bus2=54_236 phases=3 Linecode=16_PSC Length=0.10604 Units=m
New Line.LINE54_236 Bus1=54_229 Bus2=54_237 phases=3 Linecode=16_PSC Length=2.5161 Units=m
New Line.LINE54_237 Bus1=54_230 Bus2=54_238 phases=3 Linecode=5c_.1 Length=0.66708 Units=m
New Line.LINE54_238 Bus1=54_230 Bus2=54_239 phases=3 Linecode=5c_.1 Length=0.66708 Units=m
New Line.LINE54_239 Bus1=54_233 Bus2=54_240 phases=3 Linecode=4_XC Length=0.24083 Units=m
New Line.LINE54_240 Bus1=54_234 Bus2=54_241 phases=3 Linecode=16_PSC Length=0.55 Units=m
New Line.LINE54_241 Bus1=54_236 Bus2=54_242 phases=3 Linecode=16_PSC Length=0.129 Units=m
New Line.LINE54_242 Bus1=54_237 Bus2=54_243 phases=3 Linecode=16_PSC Length=5.1871 Units=m
New Line.LINE54_243 Bus1=54_238 Bus2=54_244 phases=3 Linecode=5c_.1 Length=0.83528 Units=m
New Line.LINE54_244 Bus1=54_238 Bus2=54_245 phases=3 Linecode=5c_.1 Length=0.83528 Units=m
New Line.LINE54_245 Bus1=54_241 Bus2=54_246 phases=3 Linecode=16_PSC Length=0.49659 Units=m
New Line.LINE54_246 Bus1=54_242 Bus2=54_247 phases=3 Linecode=16_PSC Length=0.12618 Units=m
New Line.LINE54_247 Bus1=54_243 Bus2=54_248 phases=3 Linecode=16_PSC Length=3.6109 Units=m
New Line.LINE54_248 Bus1=54_244 Bus2=54_249 phases=3 Linecode=5c_.1 Length=3.6733 Units=m
New Line.LINE54_249 Bus1=54_244 Bus2=54_250 phases=3 Linecode=5c_.1 Length=3.6733 Units=m
New Line.LINE54_250 Bus1=54_246 Bus2=54_251 phases=3 Linecode=16_PSC Length=0.20125 Units=m
New Line.LINE54_251 Bus1=54_247 Bus2=54_252 phases=3 Linecode=16_PSC Length=0.28486 Units=m
New Line.LINE54_252 Bus1=54_249 Bus2=54_253 phases=3 Linecode=5c_.1 Length=3.3374 Units=m
New Line.LINE54_253 Bus1=54_251 Bus2=54_254 phases=3 Linecode=16_PSC Length=0.13416 Units=m
New Line.LINE54_254 Bus1=54_252 Bus2=54_255 phases=3 Linecode=16_PSC Length=6.4586 Units=m
New Line.LINE54_255 Bus1=54_253 Bus2=54_256 phases=3 Linecode=5c_.1 Length=0.31623 Units=m
New Line.LINE54_256 Bus1=54_253 Bus2=54_257 phases=3 Linecode=5c_.1 Length=1.2215 Units=m
New Line.LINE54_257 Bus1=54_254 Bus2=54_258 phases=3 Linecode=16_PSC Length=0.2832 Units=m
New Line.LINE54_258 Bus1=54_256 Bus2=54_259 phases=3 Linecode=5c_.1 Length=0.036054 Units=m
New Line.LINE54_259 Bus1=54_257 Bus2=54_260 phases=3 Linecode=5c_.1 Length=4.2138 Units=m
New Line.LINE54_260 Bus1=54_258 Bus2=54_261 phases=3 Linecode=16_PSC Length=0.13602 Units=m
New Line.LINE54_261 Bus1=54_259 Bus2=54_262 phases=3 Linecode=5c_.1 Length=0.050001 Units=m
New Line.LINE54_262 Bus1=54_260 Bus2=54_263 phases=3 Linecode=5c_.1 Length=0.23901 Units=m
New Line.LINE54_263 Bus1=54_260 Bus2=54_264 phases=3 Linecode=5c_.1 Length=0.66068 Units=m
New Line.LINE54_264 Bus1=54_261 Bus2=54_265 phases=3 Linecode=16_PSC Length=0.29069 Units=m
New Line.LINE54_265 Bus1=54_262 Bus2=54_266 phases=3 Linecode=5c_.1 Length=0.044721 Units=m
New Line.LINE54_266 Bus1=54_263 Bus2=54_267 phases=3 Linecode=5c_.1 Length=0.10296 Units=m
New Line.LINE54_267 Bus1=54_264 Bus2=54_268 phases=3 Linecode=5c_.1 Length=0.66603 Units=m
New Line.LINE54_268 Bus1=54_265 Bus2=54_269 phases=3 Linecode=16_PSC Length=0.36222 Units=m
New Line.LINE54_269 Bus1=54_266 Bus2=54_270 phases=3 Linecode=5c_.1 Length=0.12042 Units=m
New Line.LINE54_270 Bus1=54_267 Bus2=54_271 phases=3 Linecode=5c_.1 Length=0.092194 Units=m
New Line.LINE54_271 Bus1=54_268 Bus2=54_272 phases=3 Linecode=5c_.1 Length=0.24042 Units=m
New Line.LINE54_272 Bus1=54_269 Bus2=54_273 phases=3 Linecode=16_PSC Length=0.62169 Units=m
New Line.LINE54_273 Bus1=54_270 Bus2=54_274 phases=3 Linecode=5c_.1 Length=0.16763 Units=m
New Line.LINE54_274 Bus1=54_271 Bus2=54_275 phases=3 Linecode=5c_.1 Length=0.1005 Units=m
New Line.LINE54_275 Bus1=54_272 Bus2=54_276 phases=3 Linecode=5c_.1 Length=0.17029 Units=m
New Line.LINE54_276 Bus1=54_273 Bus2=54_277 phases=3 Linecode=16_PSC Length=5.8415 Units=m
New Line.LINE54_277 Bus1=54_274 Bus2=54_278 phases=3 Linecode=5c_.1 Length=0.031624 Units=m
New Line.LINE54_278 Bus1=54_275 Bus2=54_279 phases=3 Linecode=5c_.1 Length=0.089999 Units=m
New Line.LINE54_279 Bus1=54_276 Bus2=54_280 phases=3 Linecode=5c_.1 Length=0.092196 Units=m
New Line.LINE54_280 Bus1=54_278 Bus2=54_281 phases=3 Linecode=5c_.1 Length=0.050001 Units=m
New Line.LINE54_281 Bus1=54_279 Bus2=54_282 phases=3 Linecode=5c_.1 Length=0.10198 Units=m
New Line.LINE54_282 Bus1=54_280 Bus2=54_283 phases=3 Linecode=5c_.1 Length=0.094868 Units=m
New Line.LINE54_283 Bus1=54_281 Bus2=54_284 phases=3 Linecode=5c_.1 Length=0.042427 Units=m
New Line.LINE54_284 Bus1=54_282 Bus2=54_285 phases=3 Linecode=5c_.1 Length=0.089443 Units=m
New Line.LINE54_285 Bus1=54_283 Bus2=54_286 phases=3 Linecode=5c_.1 Length=0.14 Units=m
New Line.LINE54_286 Bus1=54_284 Bus2=54_287 phases=3 Linecode=5c_.1 Length=0.042425 Units=m
New Line.LINE54_287 Bus1=54_285 Bus2=54_288 phases=3 Linecode=5c_.1 Length=0.099999 Units=m
New Line.LINE54_288 Bus1=54_286 Bus2=54_289 phases=3 Linecode=5c_.1 Length=0.080625 Units=m
New Line.LINE54_289 Bus1=54_287 Bus2=54_290 phases=3 Linecode=5c_.1 Length=0.13153 Units=m
New Line.LINE54_290 Bus1=54_288 Bus2=54_291 phases=3 Linecode=5c_.1 Length=0.564 Units=m
New Line.LINE54_291 Bus1=54_289 Bus2=54_292 phases=3 Linecode=5c_.1 Length=0.15231 Units=m
New Line.LINE54_292 Bus1=54_290 Bus2=54_293 phases=3 Linecode=5c_.1 Length=0.06 Units=m
New Line.LINE54_293 Bus1=54_292 Bus2=54_294 phases=3 Linecode=5c_.1 Length=0.19235 Units=m
New Line.LINE54_294 Bus1=54_293 Bus2=54_295 phases=3 Linecode=5c_.1 Length=0.092196 Units=m
New Line.LINE54_295 Bus1=54_294 Bus2=54_296 phases=3 Linecode=5c_.1 Length=0.29732 Units=m
New Line.LINE54_296 Bus1=54_295 Bus2=54_297 phases=3 Linecode=5c_.1 Length=0.13342 Units=m
New Line.LINE54_297 Bus1=54_296 Bus2=54_298 phases=3 Linecode=5c_.1 Length=0.61057 Units=m
New Line.LINE54_298 Bus1=54_297 Bus2=54_299 phases=3 Linecode=5c_.1 Length=0.31305 Units=m
New Line.LINE54_299 Bus1=54_298 Bus2=54_300 phases=3 Linecode=5c_.1 Length=0.35114 Units=m
New Line.LINE54_300 Bus1=54_299 Bus2=54_301 phases=3 Linecode=5c_.1 Length=0.20248 Units=m
New Line.LINE54_301 Bus1=54_300 Bus2=54_302 phases=3 Linecode=5c_.1 Length=0.20025 Units=m
New Line.LINE54_302 Bus1=54_302 Bus2=54_303 phases=3 Linecode=5c_.1 Length=0.57009 Units=m
New Line.LINE54_303 Bus1=54_303 Bus2=54_304 phases=3 Linecode=5c_.1 Length=0.34015 Units=m
New Line.LINE54_304 Bus1=54_304 Bus2=54_305 phases=3 Linecode=5c_.1 Length=0.42579 Units=m
New Line.LINE54_305 Bus1=54_305 Bus2=54_306 phases=3 Linecode=5c_.1 Length=0.27166 Units=m
New Line.LINE54_306 Bus1=54_306 Bus2=54_307 phases=3 Linecode=5c_.1 Length=0.20224 Units=m
New Line.LINE54_307 Bus1=54_307 Bus2=54_308 phases=3 Linecode=5c_.1 Length=0.14318 Units=m
New Line.LINE54_308 Bus1=54_308 Bus2=54_309 phases=3 Linecode=5c_.1 Length=0.23707 Units=m
New Line.LINE54_309 Bus1=54_309 Bus2=54_310 phases=3 Linecode=5c_.1 Length=0.31623 Units=m
New Line.LINE54_310 Bus1=54_310 Bus2=54_311 phases=3 Linecode=5c_.1 Length=0.50329 Units=m
New Line.LINE54_311 Bus1=54_311 Bus2=54_312 phases=3 Linecode=5c_.1 Length=0.086024 Units=m
New Line.LINE54_312 Bus1=54_311 Bus2=54_313 phases=3 Linecode=5c_.1 Length=0.086024 Units=m
New Line.LINE54_313 Bus1=54_312 Bus2=54_314 phases=3 Linecode=5c_.1 Length=5.692 Units=m
New Line.LINE54_314 Bus1=54_312 Bus2=54_315 phases=3 Linecode=5c_.1 Length=5.692 Units=m
New Line.LINE54_315 Bus1=54_314 Bus2=54_316 phases=3 Linecode=5c_.1 Length=13.9904 Units=m
New Line.LINE54_316 Bus1=54_314 Bus2=54_317 phases=3 Linecode=5c_.1 Length=13.9904 Units=m
New Line.LINE54_317 Bus1=54_316 Bus2=54_318 phases=3 Linecode=5c_.1 Length=1.2333 Units=m
New Line.LINE54_318 Bus1=54_316 Bus2=54_319 phases=3 Linecode=5c_.1 Length=1.2333 Units=m
New Line.LINE54_319 Bus1=54_318 Bus2=54_320 phases=3 Linecode=5c_.1 Length=0.64351 Units=m
New Line.LINE54_320 Bus1=54_318 Bus2=54_321 phases=3 Linecode=5c_.1 Length=0.64351 Units=m
New Line.LINE54_321 Bus1=54_320 Bus2=54_322 phases=3 Linecode=5c_.1 Length=0.9005 Units=m
New Line.LINE54_322 Bus1=54_320 Bus2=54_323 phases=3 Linecode=5c_.1 Length=0.9005 Units=m
New Line.LINE54_323 Bus1=54_322 Bus2=54_324 phases=3 Linecode=5c_.1 Length=1.2491 Units=m
New Line.LINE54_324 Bus1=54_322 Bus2=54_325 phases=3 Linecode=5c_.1 Length=1.2491 Units=m
New Line.LINE54_325 Bus1=54_322 Bus2=54_326 phases=3 Linecode=25_SAC_XC Length=0.11424 Units=m
New Line.LINE54_326 Bus1=54_324 Bus2=54_327 phases=3 Linecode=5c_.1 Length=1.2657 Units=m
New Line.LINE54_327 Bus1=54_324 Bus2=54_328 phases=3 Linecode=5c_.1 Length=1.2657 Units=m
New Line.LINE54_328 Bus1=54_326 Bus2=54_329 phases=3 Linecode=25_SAC_XC Length=2.52 Units=m
New Line.LINE54_329 Bus1=54_327 Bus2=54_330 phases=3 Linecode=5c_.1 Length=1.1543 Units=m
New Line.LINE54_330 Bus1=54_327 Bus2=54_331 phases=3 Linecode=5c_.1 Length=1.1543 Units=m
New Line.LINE54_331 Bus1=54_330 Bus2=54_332 phases=3 Linecode=5c_.1 Length=4.8624 Units=m