New Line.LINE54_29 Bus1=54_29 Bus2=54_30 phases=3 Linecode=5c_.1 Length=4.0453 Units=m
New Line.LINE54_32 Bus1=54_30 Bus2=54_33 phases=3 Linecode=5c_.1 Length=3.4496 Units=m
New Line.LINE54_94 Bus1=54_89 Bus2=54_95 phases=3 Linecode=5c_.1 Length=11.9463 Units=m
New Line.LINE54_117 Bus1=54_110 Bus2=54_118 phases=3 Linecode=5c_.1 Length=14.8117 Units=m
New Line.LINE54_118 Bus1=54_110 Bus2=54_119 phases=3 Linecode=5c_.1 Length=3.9325 Units=m
New Line.LINE54_127 Bus1=54_118 Bus2=54_128 phases=3 Linecode=5c_.1 Length=7.2907 Units=m
New Line.LINE54_138 Bus1=54_128 Bus2=54_139 phases=3 Linecode=5c_.1 Length=10.4189 Units=m
New Line.LINE54_151 Bus1=54_139 Bus2=54_152 phases=3 Linecode=5c_.1 Length=8.2743 Units=m
New Line.LINE54_162 Bus1=54_152 Bus2=54_163 phases=3 Linecode=5c_.1 Length=8.0963 Units=m
New Line.LINE54_176 Bus1=54_163 Bus2=54_177 phases=3 Linecode=5c_.1 Length=7.904 Units=m
New Line.LINE54_325 Bus1=54_322 Bus2=54_326 phases=3 Linecode=25_SAC_XC Length=0.11424 Units=m
New Line.LINE54_328 Bus1=54_326 Bus2=54_329 phases=3 Linecode=25_SAC_XC Length=2.52 Units=m
New Line.LINE54_350 Bus1=54_349 Bus2=54_351 phases=3 Linecode=5c_.1 Length=4.39 Units=m
New Line.LINE54_353 Bus1=54_351 Bus2=54_354 phases=3 Linecode=5c_.1 Length=4.0781 Units=m
New Line.LINE54_357 Bus1=54_354 Bus2=54_358 phases=3 Linecode=5c_.1 Length=4.9858 Units=m
New Line.LINE54_362 Bus1=54_358 Bus2=54_363 phases=3 Linecode=5c_.1 Length=4.8936 Units=m
New Line.LINE54_368 Bus1=54_363 Bus2=54_369 phases=3 Linecode=5c_.1 Length=6.1064 Units=m
New Line.LINE54_374 Bus1=54_369 Bus2=54_375 phases=3 Linecode=5c_.1 Length=15.2031 Units=m
New Line.LINE54_380 Bus1=54_375 Bus2=54_381 phases=3 Linecode=5c_.1 Length=5.2521 Units=m
New Line.LINE54_387 Bus1=54_381 Bus2=54_388 phases=3 Linecode=5c_.1 Length=1.4743 Units=m
New Line.LINE54_394 Bus1=54_388 Bus2=54_395 phases=3 Linecode=5c_.06 Length=4.3328 Units=m
New Line.LINE54_401 Bus1=54_395 Bus2=54_402 phases=3 Linecode=5c_.06 Length=4.8591 Units=m
New Line.LINE54_Cmpd_0 Bus1=54_33 Bus2=54_255 phases=3 Linecode=16_PSC Length=16.602064 Units=m
New Line.LINE54_Cmpd_1 Bus1=54_358 Bus2=54_400 phases=3 Linecode=2c_.0225 Length=12.21679 Units=m
New Line.LINE54_Cmpd_2 Bus1=54_402 Bus2=54_433 phases=3 Linecode=2c_.0225 Length=10.68714 Units=m
New Line.LINE54_Cmpd_3 Bus1=54_78 Bus2=54_277 phases=3 Linecode=16_PSC Length=16.546871 Units=m
New Line.LINE54_Cmpd_4 Bus1=54_1 Bus2=54_29 phases=3 Linecode=5c_.06 Length=24.419951 Units=m
New Line.LINE54_Cmpd_5 Bus1=54_163 Bus2=54_322 phases=3 Linecode=5c_.1 Length=59.543393 Units=m
New Line.LINE54_Cmpd_6 Bus1=54_46 Bus2=54_235 phases=3 Linecode=16_PSC Length=17.90537 Units=m
New Line.LINE54_Cmpd_7 Bus1=54_381 Bus2=54_425 phases=3 Linecode=25_SAC_XC Length=12.4676 Units=m
New Line.LINE54_Cmpd_8 Bus1=54_163 Bus2=54_204 phases=3 Linecode=.0225 Length=12.8793 Units=m
New Line.LINE54_Cmpd_9 Bus1=54_38 Bus2=54_76 phases=3 Linecode=2c_.0145 Length=12.80948 Units=m
New Line.LINE54_Cmpd_10 Bus1=54_349 Bus2=54_374 phases=3 Linecode=2c_.0225 Length=11.91334 Units=m
New Line.LINE54_Cmpd_11 Bus1=54_322 Bus2=54_349 phases=3 Linecode=5c_.1 Length=50.1819 Units=m
New Line.LINE54_Cmpd_12 Bus1=54_139 Bus2=54_248 phases=3 Linecode=16_PSC Length=12.431809 Units=m
New Line.LINE54_Cmpd_13 Bus1=54_95 Bus2=54_195 phases=3 Linecode=25_SAC_XC Length=14.75496 Units=m
New Line.LINE54_Cmpd_14 Bus1=54_118 Bus2=54_199 phases=3 Linecode=16_PSC Length=13.29812 Units=m
New Line.LINE54_Cmpd_15 Bus1=54_351 Bus2=54_387 phases=3 Linecode=2c_.0225 Length=11.83921 Units=m
New Line.LINE54_Cmpd_16 Bus1=54_412 Bus2=54_445 phases=3 Linecode=2c_.0225 Length=12.29249 Units=m
New Line.LINE54_Cmpd_17 Bus1=54_369 Bus2=54_405 phases=3 Linecode=2c_.0225 Length=12.41835 Units=m
New Line.LINE54_Cmpd_18 Bus1=54_363 Bus2=54_399 phases=3 Linecode=2c_.0225 Length=11.83048 Units=m
New Line.LINE54_Cmpd_19 Bus1=54_78 Bus2=54_89 phases=3 Linecode=5c_.1 Length=9.87563 Units=m
New Line.LINE54_Cmpd_20 Bus1=54_423 Bus2=54_435 phases=3 Linecode=5c_.06 Length=17.4341 Units=m
New Line.LINE54_Cmpd_21 Bus1=54_444 Bus2=54_448 phases=3 Linecode=2c_.0225 Length=17.6461 Units=m
New Line.LINE54_Cmpd_22 Bus1=54_30 Bus2=54_38 phases=3 Linecode=5c_.1 Length=15 Units=m
New Line.LINE54_Cmpd_23 Bus1=54_412 Bus2=54_423 phases=3 Linecode=5c_.06 Length=4.1401 Units=m
New Line.LINE54_Cmpd_24 Bus1=54_55 Bus2=54_78 phases=3 Linecode=5c_.1 Length=10.63754 Units=m
New Line.LINE54_Cmpd_25 Bus1=54_354 Bus2=54_394 phases=3 Linecode=2c_.0225 Length=13.02924 Units=m
New Line.LINE54_Cmpd_26 Bus1=54_38 Bus2=54_46 phases=3 Linecode=5c_.1 Length=7.8779 Units=m
New Line.LINE54_Cmpd_27 Bus1=54_89 Bus2=54_144 phases=3 Linecode=25_SAC_XC Length=13.996288 Units=m
New Line.LINE54_Cmpd_28 Bus1=54_395 Bus2=54_421 phases=3 Linecode=2c_.0225 Length=12.23632 Units=m
New Line.LINE54_Cmpd_29 Bus1=54_375 Bus2=54_415 phases=3 Linecode=2c_.0225 Length=11.80815 Units=m
New Line.LINE54_Cmpd_30 Bus1=54_435 Bus2=54_440 phases=3 Linecode=2c_.0225 Length=15.3707 Units=m
New Line.LINE54_Cmpd_31 Bus1=54_95 Bus2=54_110 phases=3 Linecode=5c_.1 Length=4.212621 Units=m
New Line.LINE54_Cmpd_32 Bus1=54_435 Bus2=54_444 phases=3 Linecode=5c_.06 Length=9.5045 Units=m
New Line.LINE54_Cmpd_33 Bus1=54_152 Bus2=54_174 phases=3 Linecode=2c_.0145 Length=13.6103 Units=m
New Line.LINE54_Cmpd_34 Bus1=54_119 Bus2=54_142 phases=3 Linecode=2c_.0145 Length=15.8126 Units=m
New Line.LINE54_Cmpd_35 Bus1=54_55 Bus2=54_68 phases=3 Linecode=2c_.0145 Length=14.588 Units=m
New Line.LINE54_Cmpd_36 Bus1=54_423 Bus2=54_431 phases=3 Linecode=2c_.0225 Length=11.8907 Units=m
New Line.LINE54_Cmpd_37 Bus1=54_177 Bus2=54_205 phases=3 Linecode=2c_.0145 Length=12.5524 Units=m
New Line.LINE54_Cmpd_38 Bus1=54_46 Bus2=54_55 phases=3 Linecode=5c_.1 Length=9.6487 Units=m
New Line.LINE54_Cmpd_39 Bus1=54_128 Bus2=54_150 phases=3 Linecode=2c_.0145 Length=13.3844 Units=m
New Line.LINE54_Cmpd_40 Bus1=54_402 Bus2=54_412 phases=3 Linecode=5c_.06 Length=6.4783 Units=m
