New Line.LINE51 Bus1=49 Bus2=52 phases=3 Linecode=2c_.0225 Length=6.7057 Units=m
New Line.LINE55 Bus1=52 Bus2=56 phases=3 Linecode=2c_.0225 Length=5.5592 Units=m
New Line.LINE56 Bus1=52 Bus2=57 phases=3 Linecode=2c_.0225 Length=5.5592 Units=m
New Line.LINE67 Bus1=63 Bus2=68 phases=3 Linecode=4c_.0145 Length=8.2989 Units=m
New Line.LINE72 Bus1=68 Bus2=73 phases=3 Linecode=4c_.0145 Length=5.6569 Units=m
New Line.LINE73 Bus1=68 Bus2=74 phases=3 Linecode=4c_.0145 Length=5.6569 Units=m
New Line.LINE98 Bus1=95 Bus2=99 phases=3 Linecode=5c_.06 Length=5.3315 Units=m
New Line.LINE102 Bus1=99 Bus2=103 phases=3 Linecode=4c_.0145 Length=8.9794 Units=m
New Line.LINE106 Bus1=103 Bus2=107 phases=3 Linecode=25_SAC_XC Length=4.4241 Units=m
New Line.LINE139 Bus1=136 Bus2=140 phases=3 Linecode=5c_.06 Length=4.2893 Units=m
New Line.LINECmpd_0 Bus1=1 Bus2=32 phases=3 Linecode=5c_.1 Length=10.974041 Units=m
New Line.LINECmpd_1 Bus1=38 Bus2=49 phases=3 Linecode=5c_.06 Length=14.05352 Units=m
New Line.LINECmpd_2 Bus1=150 Bus2=153 phases=3 Linecode=2c_.0225 Length=11.2595 Units=m
New Line.LINECmpd_3 Bus1=63 Bus2=95 phases=3 Linecode=5c_.06 Length=14.28693 Units=m
New Line.LINECmpd_4 Bus1=108 Bus2=128 phases=3 Linecode=5c_.06 Length=18.9318 Units=m
New Line.LINECmpd_5 Bus1=176 Bus2=179 phases=3 Linecode=25_SAC_XC Length=13.0063 Units=m
New Line.LINECmpd_6 Bus1=154 Bus2=176 phases=3 Linecode=5c_.06 Length=48.21939 Units=m
New Line.LINECmpd_7 Bus1=181 Bus2=184 phases=3 Linecode=25_SAC_XC Length=13.1125 Units=m
New Line.LINECmpd_8 Bus1=185 Bus2=188 phases=3 Linecode=25_SAC_XC Length=13.147 Units=m
New Line.LINECmpd_9 Bus1=185 Bus2=190 phases=3 Linecode=5c_.06 Length=8.6875 Units=m
New Line.LINECmpd_10 Bus1=49 Bus2=63 phases=3 Linecode=5c_.06 Length=13.673 Units=m
New Line.LINECmpd_11 Bus1=176 Bus2=181 phases=3 Linecode=5c_.06 Length=13.5007 Units=m
New Line.LINECmpd_12 Bus1=140 Bus2=145 phases=3 Linecode=2c_.0225 Length=16.7098 Units=m
New Line.LINECmpd_13 Bus1=95 Bus2=102 phases=3 Linecode=2c_.0145 Length=12.6917 Units=m
New Line.LINECmpd_14 Bus1=150 Bus2=154 phases=3 Linecode=5c_.06 Length=3.99381 Units=m
New Line.LINECmpd_15 Bus1=108 Bus2=120 phases=3 Linecode=16_PSC Length=14.13663 Units=m
New Line.LINECmpd_16 Bus1=146 Bus2=150 phases=3 Linecode=5c_.06 Length=4.433323 Units=m
New Line.LINECmpd_17 Bus1=128 Bus2=136 phases=3 Linecode=5c_.06 Length=7.2942 Units=m
New Line.LINECmpd_18 Bus1=154 Bus2=157 phases=3 Linecode=2c_.0225 Length=12.461 Units=m
New Line.LINECmpd_19 Bus1=136 Bus2=142 phases=3 Linecode=2c_.0225 Length=16.4094 Units=m
New Line.LINECmpd_20 Bus1=190 Bus2=193 phases=3 Linecode=25_SAC_XC Length=12.1506 Units=m
New Line.LINECmpd_21 Bus1=99 Bus2=108 phases=3 Linecode=5c_.06 Length=12.0566 Units=m
New Line.LINECmpd_22 Bus1=128 Bus2=138 phases=3 Linecode=2c_.0225 Length=15.34925 Units=m
New Line.LINECmpd_23 Bus1=32 Bus2=38 phases=3 Linecode=5c_.06 Length=7.7038 Units=m
New Line.LINECmpd_24 Bus1=38 Bus2=45 phases=3 Linecode=2c_.0225 Length=13.3983 Units=m
New Line.LINECmpd_25 Bus1=140 Bus2=146 phases=3 Linecode=5c_.06 Length=8.41169 Units=m
New Line.LINECmpd_26 Bus1=146 Bus2=149 phases=3 Linecode=2c_.0225 Length=10.4185 Units=m
New Line.LINECmpd_27 Bus1=181 Bus2=185 phases=3 Linecode=5c_.06 Length=9.4579 Units=m
