New Line.LINE1 Bus1=1 Bus2=2 phases=3 Linecode=5c_.1 Length=0.13724 Units=m
New Line.LINE2 Bus1=2 Bus2=3 phases=3 Linecode=5c_.1 Length=0.051866 Units=m
New Line.LINE3 Bus1=3 Bus2=4 phases=3 Linecode=5c_.1 Length=0.038012 Units=m
New Line.LINE4 Bus1=4 Bus2=5 phases=3 Linecode=5c_.1 Length=0.044554 Units=m
New Line.LINE5 Bus1=5 Bus2=6 phases=3 Linecode=5c_.1 Length=0.045607 Units=m
New Line.LINE6 Bus1=6 Bus2=7 phases=3 Linecode=5c_.1 Length=0.06174 Units=m
New Line.LINE7 Bus1=7 Bus2=8 phases=3 Linecode=5c_.1 Length=0.048836 Units=m
New Line.LINE8 Bus1=8 Bus2=9 phases=3 Linecode=5c_.1 Length=0.037122 Units=m
New Line.LINE9 Bus1=9 Bus2=10 phases=3 Linecode=5c_.1 Length=0.056886 Units=m
New Line.LINE10 Bus1=10 Bus2=11 phases=3 Linecode=5c_.1 Length=2.8399 Units=m
New Line.LINE11 Bus1=11 Bus2=12 phases=3 Linecode=5c_.1 Length=0.063976 Units=m
New Line.LINE12 Bus1=12 Bus2=13 phases=3 Linecode=5c_.1 Length=0.043863 Units=m
New Line.LINE13 Bus1=13 Bus2=14 phases=3 Linecode=5c_.1 Length=0.05801 Units=m
New Line.LINE14 Bus1=14 Bus2=15 phases=3 Linecode=5c_.1 Length=0.051662 Units=m
New Line.LINE15 Bus1=15 Bus2=16 phases=3 Linecode=5c_.1 Length=0.087618 Units=m
New Line.LINE16 Bus1=16 Bus2=17 phases=3 Linecode=5c_.1 Length=0.40052 Units=m
New Line.LINE17 Bus1=17 Bus2=18 phases=3 Linecode=5c_.1 Length=0.055606 Units=m
New Line.LINE18 Bus1=18 Bus2=19 phases=3 Linecode=5c_.1 Length=0.062937 Units=m
New Line.LINE19 Bus1=19 Bus2=20 phases=3 Linecode=5c_.1 Length=0.064661 Units=m
New Line.LINE20 Bus1=20 Bus2=21 phases=3 Linecode=5c_.1 Length=0.063134 Units=m
New Line.LINE21 Bus1=21 Bus2=22 phases=3 Linecode=5c_.1 Length=0.062651 Units=m
New Line.LINE22 Bus1=22 Bus2=23 phases=3 Linecode=5c_.1 Length=2.6007 Units=m
New Line.LINE23 Bus1=23 Bus2=24 phases=3 Linecode=5c_.1 Length=2.285 Units=m
New Line.LINE24 Bus1=24 Bus2=25 phases=3 Linecode=5c_.1 Length=0.5019 Units=m
New Line.LINE25 Bus1=25 Bus2=26 phases=3 Linecode=5c_.1 Length=0.14425 Units=m
New Line.LINE26 Bus1=26 Bus2=27 phases=3 Linecode=5c_.1 Length=0.15513 Units=m
New Line.LINE27 Bus1=27 Bus2=28 phases=3 Linecode=5c_.1 Length=0.12587 Units=m
New Line.LINE28 Bus1=28 Bus2=29 phases=3 Linecode=5c_.1 Length=0.14785 Units=m
New Line.LINE29 Bus1=29 Bus2=30 phases=3 Linecode=5c_.1 Length=0.25372 Units=m
New Line.LINE30 Bus1=30 Bus2=31 phases=3 Linecode=5c_.1 Length=0.19625 Units=m
New Line.LINE31 Bus1=31 Bus2=32 phases=3 Linecode=5c_.1 Length=0.18697 Units=m
New Line.LINE32 Bus1=32 Bus2=33 phases=3 Linecode=5c_.06 Length=2.595 Units=m
New Line.LINE34 Bus1=33 Bus2=35 phases=3 Linecode=5c_.06 Length=2.608 Units=m
New Line.LINE37 Bus1=35 Bus2=38 phases=3 Linecode=5c_.06 Length=2.5008 Units=m
New Line.LINE51 Bus1=49 Bus2=52 phases=3 Linecode=2c_.0225 Length=6.7057 Units=m
New Line.LINE55 Bus1=52 Bus2=56 phases=3 Linecode=2c_.0225 Length=5.5592 Units=m
New Line.LINE56 Bus1=52 Bus2=57 phases=3 Linecode=2c_.0225 Length=5.5592 Units=m
New Line.LINE67 Bus1=63 Bus2=68 phases=3 Linecode=4c_.0145 Length=8.2989 Units=m
New Line.LINE72 Bus1=68 Bus2=73 phases=3 Linecode=4c_.0145 Length=5.6569 Units=m
New Line.LINE73 Bus1=68 Bus2=74 phases=3 Linecode=4c_.0145 Length=5.6569 Units=m
New Line.LINE98 Bus1=95 Bus2=99 phases=3 Linecode=5c_.06 Length=5.3315 Units=m
New Line.LINE102 Bus1=99 Bus2=103 phases=3 Linecode=4c_.0145 Length=8.9794 Units=m
New Line.LINE106 Bus1=103 Bus2=107 phases=3 Linecode=25_SAC_XC Length=4.4241 Units=m
New Line.LINE139 Bus1=136 Bus2=140 phases=3 Linecode=5c_.06 Length=4.2893 Units=m
New Line.LINE186 Bus1=185 Bus2=187 phases=3 Linecode=5c_.06 Length=1.8341 Units=m
New Line.LINE188 Bus1=187 Bus2=189 phases=3 Linecode=5c_.06 Length=4.2431 Units=m
New Line.LINE189 Bus1=189 Bus2=190 phases=3 Linecode=5c_.06 Length=2.6103 Units=m
New Line.LINE190 Bus1=190 Bus2=191 phases=3 Linecode=25_SAC_XC Length=7.4975 Units=m
New Line.LINE192 Bus1=191 Bus2=193 phases=3 Linecode=25_SAC_XC Length=4.6531 Units=m
New Line.LINECmpd_0 Bus1=63 Bus2=95 phases=3 Linecode=5c_.06 Length=14.28693 Units=m
New Line.LINECmpd_1 Bus1=154 Bus2=176 phases=3 Linecode=5c_.06 Length=48.21939 Units=m
New Line.LINECmpd_2 Bus1=185 Bus2=188 phases=3 Linecode=25_SAC_XC Length=13.147 Units=m
New Line.LINECmpd_3 Bus1=176 Bus2=181 phases=3 Linecode=5c_.06 Length=13.5007 Units=m
New Line.LINECmpd_4 Bus1=49 Bus2=63 phases=3 Linecode=5c_.06 Length=13.673 Units=m
New Line.LINECmpd_5 Bus1=154 Bus2=157 phases=3 Linecode=2c_.0225 Length=12.461 Units=m
New Line.LINECmpd_6 Bus1=150 Bus2=154 phases=3 Linecode=5c_.06 Length=3.99381 Units=m
New Line.LINECmpd_7 Bus1=108 Bus2=128 phases=3 Linecode=5c_.06 Length=18.9318 Units=m
New Line.LINECmpd_8 Bus1=176 Bus2=179 phases=3 Linecode=25_SAC_XC Length=13.0063 Units=m
New Line.LINECmpd_9 Bus1=140 Bus2=146 phases=3 Linecode=5c_.06 Length=8.41169 Units=m
New Line.LINECmpd_10 Bus1=181 Bus2=184 phases=3 Linecode=25_SAC_XC Length=13.1125 Units=m
New Line.LINECmpd_11 Bus1=95 Bus2=102 phases=3 Linecode=2c_.0145 Length=12.6917 Units=m
New Line.LINECmpd_12 Bus1=108 Bus2=120 phases=3 Linecode=16_PSC Length=14.13663 Units=m
New Line.LINECmpd_13 Bus1=99 Bus2=108 phases=3 Linecode=5c_.06 Length=12.0566 Units=m
New Line.LINECmpd_14 Bus1=140 Bus2=145 phases=3 Linecode=2c_.0225 Length=16.7098 Units=m
New Line.LINECmpd_15 Bus1=128 Bus2=138 phases=3 Linecode=2c_.0225 Length=15.34925 Units=m
New Line.LINECmpd_16 Bus1=128 Bus2=136 phases=3 Linecode=5c_.06 Length=7.2942 Units=m
New Line.LINECmpd_17 Bus1=38 Bus2=49 phases=3 Linecode=5c_.06 Length=14.05352 Units=m
New Line.LINECmpd_18 Bus1=146 Bus2=149 phases=3 Linecode=2c_.0225 Length=10.4185 Units=m
New Line.LINECmpd_19 Bus1=38 Bus2=45 phases=3 Linecode=2c_.0225 Length=13.3983 Units=m
New Line.LINECmpd_20 Bus1=136 Bus2=142 phases=3 Linecode=2c_.0225 Length=16.4094 Units=m
New Line.LINECmpd_21 Bus1=146 Bus2=150 phases=3 Linecode=5c_.06 Length=4.433323 Units=m
New Line.LINECmpd_22 Bus1=181 Bus2=185 phases=3 Linecode=5c_.06 Length=9.4579 Units=m
New Line.LINECmpd_23 Bus1=150 Bus2=153 phases=3 Linecode=2c_.0225 Length=11.2595 Units=m
