New Line.LINE155 Bus1=153 Bus2=156 phases=3 Linecode=2c_.04 Length=6.7095 Units=m
New Line.LINE1101 Bus1=196 Bus2=1102 phases=3 Linecode=2c_.04 Length=3.3635 Units=m
New Line.LINE1103 Bus1=197 Bus2=1104 phases=3 Linecode=2c_.04 Length=4.0329 Units=m
New Line.LINE1130 Bus1=1123 Bus2=1131 phases=3 Linecode=2c_.04 Length=7.2512 Units=m
New Line.LINE1140 Bus1=1131 Bus2=1141 phases=3 Linecode=2c_.04 Length=4.6693 Units=m
New Line.LINE1150 Bus1=1142 Bus2=1151 phases=3 Linecode=2c_.04 Length=6.0658 Units=m
New Line.LINE1210 Bus1=1200 Bus2=1211 phases=3 Linecode=4c_.25 Length=11.0652 Units=m
New Line.LINE1211 Bus1=1201 Bus2=1212 phases=3 Linecode=2c_.04 Length=4.0654 Units=m
New Line.LINE1216 Bus1=1205 Bus2=1217 phases=3 Linecode=2c_.04 Length=4.0018 Units=m
New Line.LINE1227 Bus1=1214 Bus2=1228 phases=3 Linecode=2c_.04 Length=4.2218 Units=m
New Line.LINE1231 Bus1=1218 Bus2=1232 phases=3 Linecode=2c_.04 Length=4.2077 Units=m
New Line.LINE1257 Bus1=1243 Bus2=1258 phases=3 Linecode=2c_.04 Length=5.0758 Units=m
New Line.LINE1266 Bus1=1251 Bus2=1267 phases=3 Linecode=2c_.04 Length=6.7974 Units=m
New Line.LINE1280 Bus1=1265 Bus2=1281 phases=3 Linecode=2c_.04 Length=2.815 Units=m
New Line.LINE1293 Bus1=1278 Bus2=1294 phases=3 Linecode=2c_.04 Length=7.5007 Units=m
New Line.LINE1309 Bus1=1294 Bus2=1310 phases=3 Linecode=2c_.04 Length=2.467 Units=m
New Line.LINE1348 Bus1=1331 Bus2=1349 phases=3 Linecode=4c_.25 Length=3.9607 Units=m
New Line.LINE1367 Bus1=1349 Bus2=1368 phases=3 Linecode=2c_.04 Length=4.3534 Units=m
New Line.LINE1440 Bus1=1421 Bus2=1441 phases=3 Linecode=2c_.04 Length=8.22 Units=m
New Line.LINE1441 Bus1=1421 Bus2=1442 phases=3 Linecode=2c_.04 Length=3.4826 Units=m
New Line.LINE1445 Bus1=1424 Bus2=1446 phases=3 Linecode=2c_.04 Length=4.5578 Units=m
New Line.LINE1464 Bus1=1444 Bus2=1465 phases=3 Linecode=2c_.04 Length=4.384 Units=m
New Line.LINE1492 Bus1=1469 Bus2=1493 phases=3 Linecode=2c_25 Length=5.3207 Units=m
New Line.LINE1506 Bus1=1483 Bus2=1507 phases=3 Linecode=3c_.04 Length=3.5235 Units=m
New Line.LINE1517 Bus1=1494 Bus2=1518 phases=3 Linecode=2c_25 Length=6.9692 Units=m
New Line.LINE1527 Bus1=1504 Bus2=1528 phases=3 Linecode=2c_.04 Length=7.2537 Units=m
New Line.LINE1528 Bus1=1504 Bus2=1529 phases=3 Linecode=4c_.06 Length=1.6403 Units=m
New Line.LINE1530 Bus1=1505 Bus2=1531 phases=3 Linecode=3c_.04 Length=5.3906 Units=m
New Line.LINE1559 Bus1=1534 Bus2=1560 phases=3 Linecode=2c_.04 Length=4.8635 Units=m
New Line.LINE1589 Bus1=1565 Bus2=1590 phases=3 Linecode=2c_.04 Length=3.7153 Units=m
New Line.LINE1603 Bus1=1577 Bus2=1604 phases=3 Linecode=4c_.25 Length=4.3797 Units=m
New Line.LINE1619 Bus1=1592 Bus2=1620 phases=3 Linecode=2c_.04 Length=4.7061 Units=m
New Line.LINE1634 Bus1=1604 Bus2=1635 phases=3 Linecode=4c_.25 Length=11.0783 Units=m
New Line.LINE1638 Bus1=1609 Bus2=1639 phases=3 Linecode=4c_.04 Length=1.1767 Units=m
New Line.LINE1668 Bus1=1639 Bus2=1669 phases=3 Linecode=4c_.04 Length=7.8365 Units=m
New Line.LINE1699 Bus1=1667 Bus2=1700 phases=3 Linecode=2c_.04 Length=5.4667 Units=m
New Line.LINE1701 Bus1=1668 Bus2=1702 phases=3 Linecode=2c_.04 Length=4.8917 Units=m
New Line.LINE1702 Bus1=1669 Bus2=1703 phases=3 Linecode=16_PSC Length=7.7524 Units=m
New Line.LINE1821 Bus1=1795 Bus2=1822 phases=3 Linecode=16_PSC Length=4.5613 Units=m
New Line.LINE1822 Bus1=1795 Bus2=1823 phases=3 Linecode=16_PSC Length=4.5613 Units=m
New Line.LINE1839 Bus1=1812 Bus2=1840 phases=3 Linecode=2c_.04 Length=2.5106 Units=m
New Line.LINE1865 Bus1=1842 Bus2=1866 phases=3 Linecode=2c_.04 Length=5.6608 Units=m
New Line.LINE1889 Bus1=1868 Bus2=1890 phases=3 Linecode=2c_.04 Length=4.2233 Units=m
New Line.LINE1895 Bus1=1874 Bus2=1896 phases=3 Linecode=16_PSC Length=2.5914 Units=m
New Line.LINE1896 Bus1=1874 Bus2=1897 phases=3 Linecode=16_PSC Length=2.5914 Units=m
New Line.LINE1938 Bus1=1924 Bus2=1939 phases=3 Linecode=4c_.06 Length=3.6813 Units=m
New Line.LINE1940 Bus1=1924 Bus2=1941 phases=3 Linecode=2c_.04 Length=7.9167 Units=m
New Line.LINE1950 Bus1=1935 Bus2=1951 phases=3 Linecode=2c_.04 Length=13.2093 Units=m
New Line.LINE1955 Bus1=1939 Bus2=1956 phases=3 Linecode=4c_.06 Length=6.9605 Units=m
New Line.LINE1957 Bus1=1941 Bus2=1958 phases=3 Linecode=2c_.04 Length=5.1934 Units=m
New Line.LINE1967 Bus1=1951 Bus2=1968 phases=3 Linecode=2c_.04 Length=5.0257 Units=m
New Line.LINE1973 Bus1=1956 Bus2=1974 phases=3 Linecode=4c_.06 Length=4.4292 Units=m
New Line.LINE1990 Bus1=1974 Bus2=1991 phases=3 Linecode=2c_.04 Length=8.3175 Units=m
New Line.LINE1991 Bus1=1974 Bus2=1992 phases=3 Linecode=4c_.06 Length=15.1499 Units=m
New Line.LINE11011 Bus1=1991 Bus2=11012 phases=3 Linecode=2c_.04 Length=5.2332 Units=m
New Line.LINE11024 Bus1=11002 Bus2=11025 phases=3 Linecode=2c_.04 Length=5.9953 Units=m
New Line.LINE11025 Bus1=11002 Bus2=11026 phases=3 Linecode=2c_.04 Length=5.9953 Units=m
New Line.LINE11044 Bus1=11021 Bus2=11045 phases=3 Linecode=2c_.04 Length=6.3831 Units=m
New Line.LINE11045 Bus1=11021 Bus2=11046 phases=3 Linecode=2c_.04 Length=6.3831 Units=m
New Line.LINE11069 Bus1=11050 Bus2=11070 phases=3 Linecode=2c_.04 Length=5.3474 Units=m
New Line.LINE11070 Bus1=11050 Bus2=11071 phases=3 Linecode=2c_.04 Length=5.3474 Units=m
New Line.LINE11113 Bus1=11097 Bus2=11114 phases=3 Linecode=2c_.04 Length=5.3997 Units=m
New Line.LINE11118 Bus1=11101 Bus2=11119 phases=3 Linecode=2c_.04 Length=3.895 Units=m
New Line.LINE11119 Bus1=11101 Bus2=11120 phases=3 Linecode=2c_.04 Length=3.895 Units=m
New Line.LINE11124 Bus1=11106 Bus2=11125 phases=3 Linecode=2c_.04 Length=5.937 Units=m
New Line.LINE11125 Bus1=11106 Bus2=11126 phases=3 Linecode=2c_.04 Length=5.937 Units=m
New Line.LINE11164 Bus1=11147 Bus2=11165 phases=3 Linecode=2c_.04 Length=4.1276 Units=m
New Line.LINE11173 Bus1=11156 Bus2=11174 phases=3 Linecode=2c_.04 Length=4.9159 Units=m
New Line.LINE11247 Bus1=11235 Bus2=11248 phases=3 Linecode=2c_.04 Length=7.6118 Units=m
New Line.LINE11251 Bus1=11238 Bus2=11252 phases=3 Linecode=2c_.04 Length=2.3274 Units=m
New Line.LINE11252 Bus1=11238 Bus2=11253 phases=3 Linecode=2c_.04 Length=2.3274 Units=m
New Line.LINE11253 Bus1=11239 Bus2=11254 phases=3 Linecode=2c_.04 Length=8.006 Units=m
New Line.LINE11254 Bus1=11239 Bus2=11255 phases=3 Linecode=2c_.04 Length=8.006 Units=m
New Line.LINE11280 Bus1=11268 Bus2=11281 phases=3 Linecode=2c_.04 Length=5.4981 Units=m
New Line.LINE11281 Bus1=11268 Bus2=11282 phases=3 Linecode=2c_.04 Length=5.4981 Units=m
New Line.LINE11308 Bus1=11297 Bus2=11309 phases=3 Linecode=4c_.04 Length=11.433 Units=m
New Line.LINE11315 Bus1=11303 Bus2=11316 phases=3 Linecode=2c_.04 Length=6.8632 Units=m
New Line.LINE11316 Bus1=11303 Bus2=11317 phases=3 Linecode=2c_.04 Length=6.8632 Units=m
New Line.LINE11333 Bus1=11322 Bus2=11334 phases=3 Linecode=2c_.04 Length=5.1168 Units=m
New Line.LINE11334 Bus1=11322 Bus2=11335 phases=3 Linecode=2c_.04 Length=5.1168 Units=m
New Line.LINE11343 Bus1=11331 Bus2=11344 phases=3 Linecode=2c_.04 Length=3.3703 Units=m
New Line.LINE11344 Bus1=11331 Bus2=11345 phases=3 Linecode=2c_.04 Length=3.3703 Units=m
New Line.LINE11354 Bus1=11342 Bus2=11355 phases=3 Linecode=2c_.04 Length=3.7568 Units=m
New Line.LINE11368 Bus1=11359 Bus2=11369 phases=3 Linecode=2c_.04 Length=6.5888 Units=m
New Line.LINE11370 Bus1=11360 Bus2=11371 phases=3 Linecode=2c_.04 Length=5.1502 Units=m
New Line.LINE11396 Bus1=11386 Bus2=11397 phases=3 Linecode=2c_.04 Length=3.2571 Units=m
New Line.LINE11412 Bus1=11402 Bus2=11413 phases=3 Linecode=2c_.04 Length=3.4625 Units=m
New Line.LINE11418 Bus1=11408 Bus2=11419 phases=3 Linecode=2c_.04 Length=4.4401 Units=m
New Line.LINE11419 Bus1=11408 Bus2=11420 phases=3 Linecode=2c_.04 Length=4.4401 Units=m
New Line.LINE11435 Bus1=11424 Bus2=11436 phases=3 Linecode=2c_.04 Length=4.3498 Units=m
New Line.LINE11474 Bus1=11467 Bus2=11475 phases=3 Linecode=2c_.04 Length=0.49008 Units=m
New Line.LINE11475 Bus1=11467 Bus2=11476 phases=3 Linecode=2c_.04 Length=2.0999 Units=m
New Line.LINE11477 Bus1=11469 Bus2=11478 phases=3 Linecode=2c_.04 Length=6.0455 Units=m
New Line.LINE11485 Bus1=11475 Bus2=11486 phases=3 Linecode=3c_.04 Length=4.0441 Units=m
New Line.LINE11487 Bus1=11476 Bus2=11488 phases=3 Linecode=3c_.04 Length=3.2927 Units=m
New Line.LINE11513 Bus1=11503 Bus2=11514 phases=3 Linecode=2c_.04 Length=4.8397 Units=m
New Line.LINE11514 Bus1=11503 Bus2=11515 phases=3 Linecode=2c_.04 Length=7.2461 Units=m
New Line.LINE11547 Bus1=11540 Bus2=11548 phases=3 Linecode=4c_.04 Length=11.6486 Units=m
New Line.LINE11600 Bus1=11593 Bus2=11601 phases=3 Linecode=2c_.04 Length=4.121 Units=m
New Line.LINE11610 Bus1=11603 Bus2=11611 phases=3 Linecode=2c_.04 Length=3.7745 Units=m
New Line.LINE11680 Bus1=11673 Bus2=11681 phases=3 Linecode=25_SAC_XC Length=5.6849 Units=m
New Line.LINE11684 Bus1=11675 Bus2=11685 phases=3 Linecode=2c_.04 Length=4.092 Units=m
New Line.LINE11686 Bus1=11676 Bus2=11687 phases=3 Linecode=2c_.04 Length=2.6414 Units=m
New Line.LINE11688 Bus1=11679 Bus2=11689 phases=3 Linecode=2c_.04 Length=4.3083 Units=m
New Line.LINE11702 Bus1=11696 Bus2=11703 phases=3 Linecode=2c_.04 Length=3.5021 Units=m
New Line.LINE11733 Bus1=11729 Bus2=11734 phases=3 Linecode=4c_.25 Length=4.1446 Units=m
New Line.LINE11738 Bus1=11734 Bus2=11739 phases=3 Linecode=2c_.04 Length=6.0382 Units=m
New Line.LINE11781 Bus1=11775 Bus2=11782 phases=3 Linecode=2c_.04 Length=5.0161 Units=m
New Line.LINE11785 Bus1=11777 Bus2=11786 phases=3 Linecode=4c_.25 Length=13.6692 Units=m
New Line.LINE11796 Bus1=11789 Bus2=11797 phases=3 Linecode=2c_.04 Length=4.6746 Units=m
New Line.LINE11807 Bus1=11799 Bus2=11808 phases=3 Linecode=2c_.04 Length=2.9815 Units=m
New Line.LINE11810 Bus1=11801 Bus2=11811 phases=3 Linecode=2c_.04 Length=4.1446 Units=m
New Line.LINE11814 Bus1=11803 Bus2=11815 phases=3 Linecode=2c_.04 Length=6.1171 Units=m
New Line.LINE11901 Bus1=11889 Bus2=11902 phases=3 Linecode=2c_.04 Length=5.1606 Units=m
New Line.LINE11938 Bus1=11926 Bus2=11939 phases=3 Linecode=2c_.04 Length=3.3374 Units=m
New Line.LINE11968 Bus1=11956 Bus2=11969 phases=3 Linecode=2c_.04 Length=4.7033 Units=m
New Line.LINE12009 Bus1=11995 Bus2=12010 phases=3 Linecode=4c_.06 Length=3.1868 Units=m
New Line.LINE12018 Bus1=12004 Bus2=12019 phases=3 Linecode=3c_.04 Length=5.3502 Units=m
New Line.LINE12020 Bus1=12005 Bus2=12021 phases=3 Linecode=3c_.04 Length=3.3252 Units=m
New Line.LINE12026 Bus1=12010 Bus2=12027 phases=3 Linecode=2c_.04 Length=8.3027 Units=m
New Line.LINE12032 Bus1=12015 Bus2=12033 phases=3 Linecode=3c_95_SAC_XC Length=0.81763 Units=m
New Line.LINE12073 Bus1=12051 Bus2=12074 phases=3 Linecode=4c_.25 Length=15.6609 Units=m
New Line.LINE12189 Bus1=12165 Bus2=12190 phases=3 Linecode=2c_.04 Length=5.2738 Units=m
New Line.LINE12191 Bus1=12166 Bus2=12192 phases=3 Linecode=25_SAC_XC Length=6.0758 Units=m
New Line.LINE12193 Bus1=12167 Bus2=12194 phases=3 Linecode=2c_.04 Length=4.2738 Units=m
New Line.LINE12278 Bus1=12251 Bus2=12279 phases=3 Linecode=2c_.04 Length=3.5743 Units=m
New Line.LINE12279 Bus1=12251 Bus2=12280 phases=3 Linecode=2c_.04 Length=3.5743 Units=m
New Line.LINE12287 Bus1=12259 Bus2=12288 phases=3 Linecode=2c_.04 Length=4.0072 Units=m
New Line.LINE12305 Bus1=12276 Bus2=12306 phases=3 Linecode=2c_.04 Length=3.8839 Units=m
New Line.LINE12316 Bus1=12286 Bus2=12317 phases=3 Linecode=2c_.04 Length=13.2658 Units=m
New Line.LINE12329 Bus1=12300 Bus2=12330 phases=3 Linecode=35_SAC_PC Length=4.4194 Units=m
New Line.LINE12345 Bus1=12317 Bus2=12346 phases=3 Linecode=2c_.04 Length=3.2062 Units=m
New Line.LINE12368 Bus1=12340 Bus2=12369 phases=3 Linecode=2c_.04 Length=4.5148 Units=m
New Line.LINE12370 Bus1=12341 Bus2=12371 phases=3 Linecode=2c_.04 Length=5.2818 Units=m
New Line.LINE12378 Bus1=12347 Bus2=12379 phases=3 Linecode=2c_.04 Length=3.6768 Units=m
New Line.LINE12428 Bus1=12402 Bus2=12429 phases=3 Linecode=2c_.04 Length=4.4318 Units=m
New Line.LINE12463 Bus1=12438 Bus2=12464 phases=3 Linecode=25_SAC_XC Length=6.8433 Units=m
New Line.LINE12464 Bus1=12438 Bus2=12465 phases=3 Linecode=25_SAC_XC Length=6.8433 Units=m
New Line.LINE12482 Bus1=12457 Bus2=12483 phases=3 Linecode=2c_.04 Length=4.9182 Units=m
New Line.LINE12493 Bus1=12469 Bus2=12494 phases=3 Linecode=35_SAC_PC Length=3.6023 Units=m
New Line.LINE12534 Bus1=12513 Bus2=12535 phases=3 Linecode=35_SAC_PC Length=6.9347 Units=m
New Line.LINE12547 Bus1=12529 Bus2=12548 phases=3 Linecode=2c_.04 Length=4.3401 Units=m
New Line.LINE12574 Bus1=12559 Bus2=12575 phases=3 Linecode=2c_.04 Length=4.7984 Units=m
New Line.LINE12576 Bus1=12560 Bus2=12577 phases=3 Linecode=2c_.04 Length=3.6907 Units=m
New Line.LINE12595 Bus1=12581 Bus2=12596 phases=3 Linecode=2c_.04 Length=5.1003 Units=m
New Line.LINE12597 Bus1=12582 Bus2=12598 phases=3 Linecode=2c_.04 Length=5.2284 Units=m
New Line.LINE12614 Bus1=12601 Bus2=12615 phases=3 Linecode=2c_.04 Length=3.3739 Units=m
New Line.LINE12653 Bus1=12641 Bus2=12654 phases=3 Linecode=2c_.04 Length=4.7561 Units=m
New Line.LINE12682 Bus1=12671 Bus2=12683 phases=3 Linecode=2c_.04 Length=4.633 Units=m
New Line.LINE12711 Bus1=12700 Bus2=12712 phases=3 Linecode=3c_.06 Length=2.3329 Units=m
New Line.LINE12723 Bus1=12711 Bus2=12724 phases=3 Linecode=3c_.06 Length=3.4674 Units=m
New Line.LINE12784 Bus1=12778 Bus2=12785 phases=3 Linecode=3c_.06 Length=5.0962 Units=m
New Line.LINE12791 Bus1=12784 Bus2=12792 phases=3 Linecode=2c_.04 Length=5.9373 Units=m
New Line.LINE12802 Bus1=12797 Bus2=12803 phases=3 Linecode=2c_.04 Length=3.1556 Units=m
New Line.LINE12803 Bus1=12797 Bus2=12804 phases=3 Linecode=2c_.04 Length=3.1556 Units=m
New Line.LINE12814 Bus1=12810 Bus2=12815 phases=3 Linecode=2c_.04 Length=3.0263 Units=m
New Line.LINE12815 Bus1=12810 Bus2=12816 phases=3 Linecode=2c_.04 Length=3.0263 Units=m
New Line.LINE1Cmpd_0 Bus1=1941 Bus2=11201 phases=3 Linecode=2c_.04 Length=17.30548 Units=m
New Line.LINE1Cmpd_1 Bus1=11540 Bus2=11643 phases=3 Linecode=4c_.25 Length=25.41092 Units=m
New Line.LINE1Cmpd_2 Bus1=11643 Bus2=11729 phases=3 Linecode=4c_.25 Length=14.20152 Units=m
New Line.LINE1Cmpd_3 Bus1=11548 Bus2=11593 phases=3 Linecode=2c_.04 Length=5.112131 Units=m
New Line.LINE1Cmpd_4 Bus1=1425 Bus2=1565 phases=3 Linecode=2c_.04 Length=6.90096 Units=m
New Line.LINE1Cmpd_5 Bus1=11210 Bus2=11402 phases=3 Linecode=2c_.04 Length=22.613187 Units=m
New Line.LINE1Cmpd_6 Bus1=11503 Bus2=11652 phases=3 Linecode=2c_.04 Length=28.18889 Units=m
New Line.LINE1Cmpd_7 Bus1=197 Bus2=1214 phases=3 Linecode=2c_.04 Length=8.176881 Units=m
New Line.LINE1Cmpd_8 Bus1=11988 Bus2=12300 phases=3 Linecode=35_SAC_PC Length=18.56925 Units=m
New Line.LINE1Cmpd_9 Bus1=12276 Bus2=12633 phases=3 Linecode=2c_.04 Length=13.96667 Units=m
New Line.LINE1Cmpd_10 Bus1=1483 Bus2=1854 phases=3 Linecode=3c_.04 Length=12.477526 Units=m
New Line.LINE1Cmpd_11 Bus1=11938 Bus2=12005 phases=3 Linecode=2c_.04 Length=2.10284 Units=m
New Line.LINE1Cmpd_12 Bus1=1935 Bus2=11128 phases=3 Linecode=4c_.06 Length=12.20198 Units=m
New Line.LINE1Cmpd_13 Bus1=12259 Bus2=12672 phases=3 Linecode=2c_.04 Length=12.408518 Units=m
New Line.LINE1Cmpd_14 Bus1=1424 Bus2=1713 phases=3 Linecode=2c_.04 Length=10.25 Units=m
New Line.LINE1Cmpd_15 Bus1=11786 Bus2=11995 phases=3 Linecode=4c_.06 Length=31.4584 Units=m
New Line.LINE1Cmpd_16 Bus1=12173 Bus2=12340 phases=3 Linecode=2c_.04 Length=2.59007 Units=m
New Line.LINE1Cmpd_17 Bus1=11734 Bus2=11777 phases=3 Linecode=4c_.25 Length=28.52089 Units=m
New Line.LINE1Cmpd_18 Bus1=12402 Bus2=12641 phases=3 Linecode=2c_.04 Length=15.434 Units=m
New Line.LINE1Cmpd_19 Bus1=1294 Bus2=1534 phases=3 Linecode=2c_.04 Length=8.36087 Units=m
New Line.LINE1Cmpd_20 Bus1=11673 Bus2=11764 phases=3 Linecode=25_SAC_XC Length=18.876806 Units=m
New Line.LINE1Cmpd_21 Bus1=12010 Bus2=12310 phases=3 Linecode=4c_.06 Length=35.27425 Units=m
New Line.LINE1Cmpd_22 Bus1=12074 Bus2=12347 phases=3 Linecode=2c_.04 Length=4.606217 Units=m
New Line.LINE1Cmpd_23 Bus1=1211 Bus2=1251 phases=3 Linecode=2c_.04 Length=16.4452 Units=m
New Line.LINE1Cmpd_24 Bus1=11593 Bus2=11678 phases=3 Linecode=2c_.04 Length=12.09514 Units=m
New Line.LINE1Cmpd_25 Bus1=12637 Bus2=12700 phases=3 Linecode=2c_.04 Length=1.042303 Units=m
New Line.LINE1Cmpd_26 Bus1=1635 Bus2=11297 phases=3 Linecode=4c_.25 Length=45.35888 Units=m
New Line.LINE1Cmpd_27 Bus1=11147 Bus2=11235 phases=3 Linecode=2c_.04 Length=5.938147 Units=m
New Line.LINE1Cmpd_28 Bus1=12398 Bus2=12560 phases=3 Linecode=2c_.04 Length=4.48688 Units=m
New Line.LINE1Cmpd_29 Bus1=11357 Bus2=11446 phases=3 Linecode=4c_.06 Length=11.04726 Units=m
New Line.LINE1Cmpd_30 Bus1=153 Bus2=192 phases=3 Linecode=4c_.25 Length=59.2901 Units=m
New Line.LINE1Cmpd_31 Bus1=12347 Bus2=12671 phases=3 Linecode=2c_.04 Length=7.597821 Units=m
New Line.LINE1Cmpd_32 Bus1=11297 Bus2=11540 phases=3 Linecode=4c_.25 Length=32.711346 Units=m
New Line.LINE1Cmpd_33 Bus1=1338 Bus2=1505 phases=3 Linecode=2c_.04 Length=2.76944 Units=m
New Line.LINE1Cmpd_34 Bus1=11210 Bus2=11357 phases=3 Linecode=4c_.6 Length=14.27327 Units=m
New Line.LINE1Cmpd_35 Bus1=1668 Bus2=11050 phases=3 Linecode=2c_.04 Length=21.70948 Units=m
New Line.LINE1Cmpd_36 Bus1=11476 Bus2=11696 phases=3 Linecode=2c_.04 Length=20.396941 Units=m
New Line.LINE1Cmpd_37 Bus1=12784 Bus2=12837 phases=3 Linecode=2c_.04 Length=13.55912 Units=m
New Line.LINE1Cmpd_38 Bus1=12682 Bus2=12787 phases=3 Linecode=2c_.04 Length=13.903718 Units=m
New Line.LINE1Cmpd_39 Bus1=1604 Bus2=1842 phases=3 Linecode=2c_.04 Length=16.91687 Units=m
New Line.LINE1Cmpd_40 Bus1=11 Bus2=132 phases=3 Linecode=3c_300_SAC_XC Length=42.202959 Units=m
New Line.LINE1Cmpd_41 Bus1=11475 Bus2=11676 phases=3 Linecode=2c_.04 Length=19.99679 Units=m
New Line.LINE1Cmpd_42 Bus1=12005 Bus2=12243 phases=3 Linecode=2c_.04 Length=12.28058 Units=m
New Line.LINE1Cmpd_43 Bus1=12074 Bus2=12259 phases=3 Linecode=2c_.04 Length=6.213506 Units=m
New Line.LINE1Cmpd_44 Bus1=12582 Bus2=12729 phases=3 Linecode=2c_.04 Length=13.18678 Units=m
New Line.LINE1Cmpd_45 Bus1=11342 Bus2=11408 phases=3 Linecode=2c_.04 Length=12.71498 Units=m
New Line.LINE1Cmpd_46 Bus1=12711 Bus2=12797 phases=3 Linecode=2c_.04 Length=6.700505 Units=m
New Line.LINE1Cmpd_47 Bus1=1494 Bus2=1778 phases=3 Linecode=2c_.04 Length=13.20678 Units=m
New Line.LINE1Cmpd_48 Bus1=1524 Bus2=1924 phases=3 Linecode=4c_.06 Length=28.87262 Units=m
New Line.LINE1Cmpd_49 Bus1=11889 Bus2=12110 phases=3 Linecode=2c_.04 Length=14.433883 Units=m
New Line.LINE1Cmpd_50 Bus1=11777 Bus2=12121 phases=3 Linecode=4c_.06 Length=46.654258 Units=m
New Line.LINE1Cmpd_51 Bus1=156 Bus2=196 phases=3 Linecode=2c_.04 Length=4.99077 Units=m
New Line.LINE1Cmpd_52 Bus1=12671 Bus2=12824 phases=3 Linecode=2c_.04 Length=14.721552 Units=m
New Line.LINE1Cmpd_53 Bus1=1812 Bus2=11101 phases=3 Linecode=2c_.04 Length=16.53181 Units=m
New Line.LINE1Cmpd_54 Bus1=11835 Bus2=11938 phases=3 Linecode=2c_.04 Length=13.31919 Units=m
New Line.LINE1Cmpd_55 Bus1=12340 Bus2=12581 phases=3 Linecode=2c_.04 Length=8.82803 Units=m
New Line.LINE1Cmpd_56 Bus1=11359 Bus2=11469 phases=3 Linecode=2c_.04 Length=7.257082 Units=m
New Line.LINE1Cmpd_57 Bus1=11424 Bus2=11626 phases=3 Linecode=2c_.04 Length=22.489367 Units=m
New Line.LINE1Cmpd_58 Bus1=1939 Bus2=11110 phases=3 Linecode=4c_.06 Length=43.0851 Units=m
New Line.LINE1Cmpd_59 Bus1=1218 Bus2=1481 phases=3 Linecode=2c_.04 Length=12.162069 Units=m
New Line.LINE1Cmpd_60 Bus1=1639 Bus2=1824 phases=3 Linecode=2c_.04 Length=11.0374 Units=m
New Line.LINE1Cmpd_61 Bus1=11799 Bus2=11956 phases=3 Linecode=2c_.04 Length=6.905779 Units=m
New Line.LINE1Cmpd_62 Bus1=1577 Bus2=1812 phases=3 Linecode=2c_.04 Length=10.63079 Units=m
New Line.LINE1Cmpd_63 Bus1=1992 Bus2=11097 phases=3 Linecode=2c_.04 Length=11.84913 Units=m
New Line.LINE1Cmpd_64 Bus1=11097 Bus2=11238 phases=3 Linecode=2c_.04 Length=6.833733 Units=m
New Line.LINE1Cmpd_65 Bus1=1240 Bus2=1504 phases=3 Linecode=4c_.06 Length=30.85629 Units=m
New Line.LINE1Cmpd_66 Bus1=11128 Bus2=11342 phases=3 Linecode=2c_.04 Length=21.175557 Units=m
New Line.LINE1Cmpd_67 Bus1=1214 Bus2=1352 phases=3 Linecode=2c_.04 Length=14.89157 Units=m
New Line.LINE1Cmpd_68 Bus1=1592 Bus2=1921 phases=3 Linecode=2c_.04 Length=13.02968 Units=m
New Line.LINE1Cmpd_69 Bus1=1565 Bus2=1920 phases=3 Linecode=2c_.04 Length=11.08135 Units=m
New Line.LINE1Cmpd_70 Bus1=1205 Bus2=1434 phases=3 Linecode=2c_.04 Length=12.02879 Units=m
New Line.LINE1Cmpd_71 Bus1=1198 Bus2=1338 phases=3 Linecode=2c_.04 Length=6.53371 Units=m
New Line.LINE1Cmpd_72 Bus1=11386 Bus2=11552 phases=3 Linecode=2c_.04 Length=18.655965 Units=m
New Line.LINE1Cmpd_73 Bus1=12502 Bus2=12651 phases=3 Linecode=4c_.06 Length=9.16606 Units=m
New Line.LINE1Cmpd_74 Bus1=156 Bus2=197 phases=3 Linecode=2c_.04 Length=7.3354 Units=m
New Line.LINE1Cmpd_75 Bus1=12180 Bus2=12438 phases=3 Linecode=25_SAC_XC Length=8.37153 Units=m
New Line.LINE1Cmpd_76 Bus1=11739 Bus2=11801 phases=3 Linecode=2c_.04 Length=3.530112 Units=m
New Line.LINE1Cmpd_77 Bus1=12601 Bus2=12755 phases=3 Linecode=2c_.04 Length=11.96001 Units=m
New Line.LINE1Cmpd_78 Bus1=1151 Bus2=1218 phases=3 Linecode=2c_.04 Length=5.561817 Units=m
New Line.LINE1Cmpd_79 Bus1=12237 Bus2=12513 phases=3 Linecode=35_SAC_PC Length=15.591467 Units=m
New Line.LINE1Cmpd_80 Bus1=11886 Bus2=11988 phases=3 Linecode=3c_95_SAC_XC Length=8.41393 Units=m
New Line.LINE1Cmpd_81 Bus1=1151 Bus2=1205 phases=3 Linecode=2c_.04 Length=3.39014 Units=m
New Line.LINE1Cmpd_82 Bus1=11235 Bus2=11319 phases=3 Linecode=2c_.04 Length=11.54806 Units=m
New Line.LINE1Cmpd_83 Bus1=12310 Bus2=12502 phases=3 Linecode=4c_.06 Length=7.32675 Units=m
New Line.LINE1Cmpd_84 Bus1=1528 Bus2=1667 phases=3 Linecode=2c_.04 Length=3.36087 Units=m
New Line.LINE1Cmpd_85 Bus1=11260 Bus2=11417 phases=3 Linecode=4c_.06 Length=19.90191 Units=m
New Line.LINE1Cmpd_86 Bus1=12027 Bus2=12276 phases=3 Linecode=2c_.04 Length=4.395059 Units=m
New Line.LINE1Cmpd_87 Bus1=1131 Bus2=1243 phases=3 Linecode=2c_.04 Length=8.544922 Units=m
New Line.LINE1Cmpd_88 Bus1=11675 Bus2=11741 phases=3 Linecode=2c_.04 Length=20.74307 Units=m
New Line.LINE1Cmpd_89 Bus1=11101 Bus2=11268 phases=3 Linecode=2c_.04 Length=15.32595 Units=m
New Line.LINE1Cmpd_90 Bus1=1703 Bus2=1874 phases=3 Linecode=16_PSC Length=1.24032 Units=m
New Line.LINE1Cmpd_91 Bus1=12346 Bus2=12586 phases=3 Linecode=25_PSC Length=6.86164 Units=m
New Line.LINE1Cmpd_92 Bus1=12033 Bus2=12328 phases=3 Linecode=35_SAC_PC Length=16.96801 Units=m
New Line.LINE1Cmpd_93 Bus1=12228 Bus2=12457 phases=3 Linecode=2c_.04 Length=5.62145 Units=m
New Line.LINE1Cmpd_94 Bus1=12033 Bus2=12298 phases=3 Linecode=35_SAC_PC Length=17.49655 Units=m
New Line.LINE1Cmpd_95 Bus1=12700 Bus2=12810 phases=3 Linecode=2c_.04 Length=6.739836 Units=m
New Line.LINE1Cmpd_96 Bus1=1528 Bus2=1668 phases=3 Linecode=2c_.04 Length=4.91212 Units=m
New Line.LINE1Cmpd_97 Bus1=132 Bus2=153 phases=3 Linecode=4c_.25 Length=36.66384 Units=m
New Line.LINE1Cmpd_98 Bus1=11110 Bus2=11210 phases=3 Linecode=4c_.06 Length=9.07449 Units=m
New Line.LINE1Cmpd_99 Bus1=12457 Bus2=12601 phases=3 Linecode=2c_.04 Length=6.1587 Units=m
New Line.LINE1Cmpd_100 Bus1=12033 Bus2=12180 phases=3 Linecode=3c_95_SAC_XC Length=12.06891 Units=m
New Line.LINE1Cmpd_101 Bus1=1469 Bus2=1748 phases=3 Linecode=2c_.04 Length=13.84201 Units=m
New Line.LINE1Cmpd_102 Bus1=12026 Bus2=12166 phases=3 Linecode=25_SAC_XC Length=2.17128 Units=m
New Line.LINE1Cmpd_103 Bus1=1842 Bus2=11156 phases=3 Linecode=2c_.04 Length=11.631718 Units=m
New Line.LINE1Cmpd_104 Bus1=1200 Bus2=1265 phases=3 Linecode=2c_.04 Length=10.76208 Units=m
New Line.LINE1Cmpd_105 Bus1=12165 Bus2=12471 phases=3 Linecode=2c_.04 Length=12.05257 Units=m
New Line.LINE1Cmpd_106 Bus1=1349 Bus2=1524 phases=3 Linecode=4c_.25 Length=43.1503 Units=m
New Line.LINE1Cmpd_107 Bus1=1444 Bus2=1679 phases=3 Linecode=2c_.04 Length=10.69284 Units=m
New Line.LINE1Cmpd_108 Bus1=11815 Bus2=11926 phases=3 Linecode=2c_.04 Length=8.40575 Units=m
New Line.LINE1Cmpd_109 Bus1=11886 Bus2=12051 phases=3 Linecode=4c_.25 Length=40.14348 Units=m
New Line.LINE1Cmpd_110 Bus1=12727 Bus2=12784 phases=3 Linecode=2c_.04 Length=5.154998 Units=m
New Line.LINE1Cmpd_111 Bus1=11956 Bus2=12251 phases=3 Linecode=2c_.04 Length=14.258843 Units=m
New Line.LINE1Cmpd_112 Bus1=11801 Bus2=11944 phases=3 Linecode=2c_.04 Length=11.433594 Units=m
New Line.LINE1Cmpd_113 Bus1=12167 Bus2=12517 phases=3 Linecode=2c_.04 Length=13.765399 Units=m
New Line.LINE1Cmpd_114 Bus1=11040 Bus2=11239 phases=3 Linecode=2c_.04 Length=13.99061 Units=m
New Line.LINE1Cmpd_115 Bus1=12560 Bus2=12781 phases=3 Linecode=2c_.04 Length=12.69684 Units=m
New Line.LINE1Cmpd_116 Bus1=1331 Bus2=1425 phases=3 Linecode=2c_.04 Length=15.40438 Units=m
New Line.LINE1Cmpd_117 Bus1=1329 Bus2=1444 phases=3 Linecode=2c_.04 Length=5.60603 Units=m
New Line.LINE1Cmpd_118 Bus1=12051 Bus2=12286 phases=3 Linecode=4c_.25 Length=21.65475 Units=m
New Line.LINE1Cmpd_119 Bus1=12296 Bus2=12469 phases=3 Linecode=35_SAC_PC Length=15.84052 Units=m
New Line.LINE1Cmpd_120 Bus1=1142 Bus2=1198 phases=3 Linecode=4c_.25 Length=32.18982 Units=m
New Line.LINE1Cmpd_121 Bus1=1265 Bus2=1296 phases=3 Linecode=2c_.04 Length=8.1226 Units=m
New Line.LINE1Cmpd_122 Bus1=1534 Bus2=1855 phases=3 Linecode=2c_.04 Length=11.61301 Units=m
New Line.LINE1Cmpd_123 Bus1=11260 Bus2=11386 phases=3 Linecode=2c_.04 Length=13.66641 Units=m
New Line.LINE1Cmpd_124 Bus1=12341 Bus2=12582 phases=3 Linecode=2c_.04 Length=9.93371 Units=m
New Line.LINE1Cmpd_125 Bus1=12727 Bus2=12778 phases=3 Linecode=2c_.04 Length=2.4177 Units=m
New Line.LINE1Cmpd_126 Bus1=12166 Bus2=12472 phases=3 Linecode=25_SAC_XC Length=12.88521 Units=m
New Line.LINE1Cmpd_127 Bus1=1368 Bus2=1494 phases=3 Linecode=2c_.04 Length=5.801291 Units=m
New Line.LINE1Cmpd_128 Bus1=1243 Bus2=1433 phases=3 Linecode=2c_.04 Length=14.001 Units=m
New Line.LINE1Cmpd_129 Bus1=1329 Bus2=1424 phases=3 Linecode=2c_.04 Length=3.14004 Units=m
New Line.LINE1Cmpd_130 Bus1=12346 Bus2=12603 phases=3 Linecode=2c_.04 Length=13.111895 Units=m
New Line.LINE1Cmpd_131 Bus1=11128 Bus2=11260 phases=3 Linecode=4c_.06 Length=12.09358 Units=m
New Line.LINE1Cmpd_132 Bus1=12310 Bus2=12398 phases=3 Linecode=2c_.04 Length=11.9089 Units=m
New Line.LINE1Cmpd_133 Bus1=11789 Bus2=11929 phases=3 Linecode=2c_.04 Length=12.191618 Units=m
New Line.LINE1Cmpd_134 Bus1=12180 Bus2=12237 phases=3 Linecode=3c_95_SAC_XC Length=7.0058 Units=m
New Line.LINE1Cmpd_135 Bus1=12559 Bus2=12759 phases=3 Linecode=2c_.04 Length=13.67486 Units=m
New Line.LINE1Cmpd_136 Bus1=1529 Bus2=1935 phases=3 Linecode=4c_.06 Length=41.707605 Units=m
New Line.LINE1Cmpd_137 Bus1=11156 Bus2=11322 phases=3 Linecode=2c_.04 Length=13.804816 Units=m
New Line.LINE1Cmpd_138 Bus1=12121 Bus2=12173 phases=3 Linecode=2c_.04 Length=14.3362 Units=m
New Line.LINE1Cmpd_139 Bus1=12581 Bus2=12753 phases=3 Linecode=2c_.04 Length=13.14925 Units=m
New Line.LINE1Cmpd_140 Bus1=1868 Bus2=11021 phases=3 Linecode=2c_.04 Length=9.16643 Units=m
New Line.LINE1Cmpd_141 Bus1=1667 Bus2=11002 phases=3 Linecode=2c_.04 Length=21.84471 Units=m
New Line.LINE1Cmpd_142 Bus1=1201 Bus2=1412 phases=3 Linecode=2c_.04 Length=11.72995 Units=m
New Line.LINE1Cmpd_143 Bus1=12015 Bus2=12183 phases=3 Linecode=35_SAC_PC Length=16.54472 Units=m
New Line.LINE1Cmpd_144 Bus1=1338 Bus2=1483 phases=3 Linecode=3c_.04 Length=6.648323 Units=m
New Line.LINE1Cmpd_145 Bus1=11775 Bus2=11894 phases=3 Linecode=2c_.04 Length=15.130611 Units=m
New Line.LINE1Cmpd_146 Bus1=12121 Bus2=12228 phases=3 Linecode=2c_.04 Length=13.04828 Units=m
New Line.LINE1Cmpd_147 Bus1=1505 Bus2=1878 phases=3 Linecode=2c_.04 Length=11.264769 Units=m
New Line.LINE1Cmpd_148 Bus1=11483 Bus2=11675 phases=3 Linecode=2c_.04 Length=6.126043 Units=m
New Line.LINE1Cmpd_149 Bus1=12173 Bus2=12341 phases=3 Linecode=2c_.04 Length=4.45224 Units=m
New Line.LINE1Cmpd_150 Bus1=1240 Bus2=1284 phases=3 Linecode=4c_.25 Length=18.4074 Units=m
New Line.LINE1Cmpd_151 Bus1=1635 Bus2=1868 phases=3 Linecode=2c_.04 Length=11.11288 Units=m
New Line.LINE1Cmpd_152 Bus1=1609 Bus2=1797 phases=3 Linecode=2c_.04 Length=10.82792 Units=m
New Line.LINE1Cmpd_153 Bus1=11926 Bus2=12163 phases=3 Linecode=2c_.04 Length=13.72268 Units=m
New Line.LINE1Cmpd_154 Bus1=11402 Bus2=11424 phases=3 Linecode=2c_.04 Length=7.0149 Units=m
New Line.LINE1Cmpd_155 Bus1=12778 Bus2=12831 phases=3 Linecode=2c_.04 Length=14.82283 Units=m
New Line.LINE1Cmpd_156 Bus1=1951 Bus2=11192 phases=3 Linecode=2c_.04 Length=18.328435 Units=m
New Line.LINE1Cmpd_157 Bus1=12502 Bus2=12637 phases=3 Linecode=2c_.04 Length=18.31578 Units=m
New Line.LINE1Cmpd_158 Bus1=11643 Bus2=11673 phases=3 Linecode=25_SAC_XC Length=15.96494 Units=m
New Line.LINE1Cmpd_159 Bus1=12026 Bus2=12165 phases=3 Linecode=2c_.04 Length=6.49895 Units=m
New Line.LINE1Cmpd_160 Bus1=1284 Bus2=1331 phases=3 Linecode=4c_.25 Length=21.868 Units=m
New Line.LINE1Cmpd_161 Bus1=11110 Bus2=11147 phases=3 Linecode=2c_.04 Length=14.7395 Units=m
New Line.LINE1Cmpd_162 Bus1=1198 Bus2=1278 phases=3 Linecode=4c_.25 Length=21.46519 Units=m
New Line.LINE1Cmpd_163 Bus1=11938 Bus2=12004 phases=3 Linecode=2c_.04 Length=6.24043 Units=m
New Line.LINE1Cmpd_164 Bus1=11751 Bus2=11789 phases=3 Linecode=2c_.04 Length=6.58221 Units=m
New Line.LINE1Cmpd_165 Bus1=1251 Bus2=1421 phases=3 Linecode=2c_.04 Length=21.82432 Units=m
New Line.LINE1Cmpd_166 Bus1=1703 Bus2=1873 phases=3 Linecode=2c_.04 Length=19.83383 Units=m
New Line.LINE1Cmpd_167 Bus1=12641 Bus2=12754 phases=3 Linecode=2c_.04 Length=11.31091 Units=m
New Line.LINE1Cmpd_168 Bus1=11603 Bus2=11679 phases=3 Linecode=2c_.04 Length=7.402634 Units=m
New Line.LINE1Cmpd_169 Bus1=11360 Bus2=11449 phases=3 Linecode=2c_.04 Length=13.0204 Units=m
New Line.LINE1Cmpd_170 Bus1=11835 Bus2=11886 phases=3 Linecode=4c_.25 Length=6.7821 Units=m
New Line.LINE1Cmpd_171 Bus1=1991 Bus2=11211 phases=3 Linecode=2c_.04 Length=13.65365 Units=m
New Line.LINE1Cmpd_172 Bus1=12027 Bus2=12167 phases=3 Linecode=2c_.04 Length=7.82372 Units=m
New Line.LINE1Cmpd_173 Bus1=12317 Bus2=12529 phases=3 Linecode=2c_.04 Length=8.854828 Units=m
New Line.LINE1Cmpd_174 Bus1=1425 Bus2=1592 phases=3 Linecode=2c_.04 Length=1.401143 Units=m
New Line.LINE1Cmpd_175 Bus1=11751 Bus2=11799 phases=3 Linecode=2c_.04 Length=2.18848 Units=m