New Line.LINE1 Bus1=1 Bus2=2 phases=3 Linecode=5c_.06 Length=0.25109 Units=m
New Line.LINE2 Bus1=2 Bus2=3 phases=3 Linecode=5c_.06 Length=0.048466 Units=m
New Line.LINE3 Bus1=3 Bus2=4 phases=3 Linecode=5c_.06 Length=0.054999 Units=m
New Line.LINE4 Bus1=4 Bus2=5 phases=3 Linecode=5c_.06 Length=0.048167 Units=m
New Line.LINE5 Bus1=5 Bus2=6 phases=3 Linecode=5c_.06 Length=0.046141 Units=m
New Line.LINE6 Bus1=6 Bus2=7 phases=3 Linecode=5c_.06 Length=0.043463 Units=m
New Line.LINE7 Bus1=7 Bus2=8 phases=3 Linecode=5c_.06 Length=0.061659 Units=m
New Line.LINE8 Bus1=8 Bus2=9 phases=3 Linecode=5c_.06 Length=0.030017 Units=m
New Line.LINE9 Bus1=9 Bus2=10 phases=3 Linecode=5c_.06 Length=0.036223 Units=m
New Line.LINE10 Bus1=10 Bus2=11 phases=3 Linecode=5c_.06 Length=3.3729 Units=m
New Line.LINE11 Bus1=11 Bus2=12 phases=3 Linecode=5c_.06 Length=0.090378 Units=m
New Line.LINE12 Bus1=12 Bus2=13 phases=3 Linecode=5c_.06 Length=0.08071 Units=m
New Line.LINE13 Bus1=13 Bus2=14 phases=3 Linecode=5c_.06 Length=0.082806 Units=m
New Line.LINE14 Bus1=14 Bus2=15 phases=3 Linecode=5c_.06 Length=0.49759 Units=m
New Line.LINE15 Bus1=15 Bus2=16 phases=3 Linecode=5c_.06 Length=2.7717 Units=m
New Line.LINE16 Bus1=16 Bus2=17 phases=3 Linecode=5c_.06 Length=2.2246 Units=m
New Line.LINE17 Bus1=17 Bus2=18 phases=3 Linecode=5c_.06 Length=2.5079 Units=m
New Line.LINE18 Bus1=18 Bus2=19 phases=3 Linecode=5c_.06 Length=1.1208 Units=m
New Line.LINE19 Bus1=19 Bus2=20 phases=3 Linecode=5c_.06 Length=9.9483 Units=m
New Line.LINE20 Bus1=20 Bus2=21 phases=3 Linecode=5c_.06 Length=0.60681 Units=m
New Line.LINE21 Bus1=21 Bus2=22 phases=3 Linecode=5c_.06 Length=0.37184 Units=m
New Line.LINE22 Bus1=22 Bus2=23 phases=3 Linecode=5c_.06 Length=0.52667 Units=m
New Line.LINE23 Bus1=23 Bus2=24 phases=3 Linecode=5c_.06 Length=0.077877 Units=m
New Line.LINE24 Bus1=24 Bus2=25 phases=3 Linecode=5c_.06 Length=0.1005 Units=m
New Line.LINE25 Bus1=25 Bus2=26 phases=3 Linecode=5c_.06 Length=0.13665 Units=m
New Line.LINE26 Bus1=26 Bus2=27 phases=3 Linecode=5c_.06 Length=0.17021 Units=m
New Line.LINE27 Bus1=27 Bus2=28 phases=3 Linecode=5c_.06 Length=0.09586 Units=m
New Line.LINE28 Bus1=28 Bus2=29 phases=3 Linecode=5c_.06 Length=0.073825 Units=m
New Line.LINE29 Bus1=29 Bus2=30 phases=3 Linecode=5c_.06 Length=0.11507 Units=m
New Line.LINE30 Bus1=30 Bus2=31 phases=3 Linecode=5c_.06 Length=0.28185 Units=m
New Line.LINE31 Bus1=31 Bus2=32 phases=3 Linecode=5c_.06 Length=0.59096 Units=m
New Line.LINE32 Bus1=32 Bus2=33 phases=3 Linecode=5c_.06 Length=0.40048 Units=m
New Line.LINE33 Bus1=33 Bus2=34 phases=3 Linecode=5c_.1 Length=3.069 Units=m
New Line.LINE35 Bus1=34 Bus2=36 phases=3 Linecode=5c_.1 Length=13.3501 Units=m
New Line.LINE37 Bus1=36 Bus2=38 phases=3 Linecode=5c_.04 Length=0.28954 Units=m
New Line.LINE40 Bus1=38 Bus2=41 phases=3 Linecode=5c_.04 Length=0.23424 Units=m
New Line.LINE43 Bus1=41 Bus2=44 phases=3 Linecode=5c_.04 Length=0.35396 Units=m
New Line.LINE46 Bus1=44 Bus2=47 phases=3 Linecode=5c_.04 Length=0.25602 Units=m
New Line.LINE49 Bus1=47 Bus2=50 phases=3 Linecode=5c_.04 Length=0.55258 Units=m
New Line.LINE52 Bus1=50 Bus2=53 phases=3 Linecode=5c_.04 Length=0.5228 Units=m
New Line.LINE54 Bus1=52 Bus2=55 phases=3 Linecode=2c_.0145 Length=3.8601 Units=m
New Line.LINE56 Bus1=53 Bus2=57 phases=3 Linecode=5c_.04 Length=0.24286 Units=m
New Line.LINE59 Bus1=57 Bus2=60 phases=3 Linecode=5c_.04 Length=0.17204 Units=m
New Line.LINE62 Bus1=60 Bus2=63 phases=3 Linecode=5c_.04 Length=0.38774 Units=m
New Line.LINE65 Bus1=63 Bus2=66 phases=3 Linecode=5c_.04 Length=0.37353 Units=m
New Line.LINE68 Bus1=66 Bus2=69 phases=3 Linecode=5c_.04 Length=0.64039 Units=m
New Line.LINE71 Bus1=69 Bus2=72 phases=3 Linecode=5c_.04 Length=1.6055 Units=m
New Line.LINE74 Bus1=72 Bus2=75 phases=3 Linecode=5c_.04 Length=4.8539 Units=m
New Line.LINE76 Bus1=75 Bus2=77 phases=3 Linecode=5c_.04 Length=2.477 Units=m
New Line.LINE79 Bus1=77 Bus2=80 phases=3 Linecode=5c_.04 Length=0.92265 Units=m
New Line.LINE82 Bus1=80 Bus2=83 phases=3 Linecode=5c_.04 Length=3.0745 Units=m
New Line.LINE85 Bus1=83 Bus2=86 phases=3 Linecode=5c_.04 Length=5.8298 Units=m
New Line.LINE88 Bus1=86 Bus2=89 phases=3 Linecode=5c_.04 Length=3.6272 Units=m
New Line.LINE91 Bus1=89 Bus2=92 phases=3 Linecode=5c_.04 Length=0.44002 Units=m
New Line.LINE93 Bus1=92 Bus2=94 phases=3 Linecode=5c_.04 Length=5.3325 Units=m
New Line.LINE95 Bus1=94 Bus2=96 phases=3 Linecode=2c_.0145 Length=6.8778 Units=m
New Line.LINE98 Bus1=96 Bus2=99 phases=3 Linecode=2c_.0145 Length=5.3558 Units=m
New Line.LINECmpd_0 Bus1=34 Bus2=52 phases=3 Linecode=2c_.0145 Length=14.408557 Units=m
New Line.LINECmpd_1 Bus1=52 Bus2=87 phases=3 Linecode=2c_.0145 Length=11.438564 Units=m
New Line.LINECmpd_2 Bus1=96 Bus2=130 phases=3 Linecode=2c_.0145 Length=11.340087 Units=m
