New Load.LOAD51_1 Phases=1 Bus1=51_55.1 kV=0.23 kW=1 PF=0.95
New Load.LOAD51_2 Phases=1 Bus1=51_87.1 kV=0.23 kW=1 PF=0.95
New Load.LOAD51_3 Phases=1 Bus1=51_99.3 kV=0.23 kW=1 PF=0.95
New Load.LOAD51_4 Phases=1 Bus1=51_130.3 kV=0.23 kW=1 PF=0.95
