New Line.LINE82 Bus1=80 Bus2=83 phases=3 Linecode=2c_.0225 Length=1.6337 Units=m
New Line.LINE84 Bus1=81 Bus2=85 phases=3 Linecode=4c_.2 Length=0.65744 Units=m
New Line.LINE178 Bus1=174 Bus2=179 phases=3 Linecode=2c_.0225 Length=2.3584 Units=m
New Line.LINE188 Bus1=186 Bus2=189 phases=3 Linecode=4c_.06 Length=0.1183 Units=m
New Line.LINE192 Bus1=189 Bus2=193 phases=3 Linecode=4c_.06 Length=0.68422 Units=m
New Line.LINE197 Bus1=193 Bus2=198 phases=3 Linecode=4c_.06 Length=0.25489 Units=m
New Line.LINE202 Bus1=198 Bus2=203 phases=3 Linecode=4c_.06 Length=0.34297 Units=m
New Line.LINE207 Bus1=203 Bus2=208 phases=3 Linecode=4c_.06 Length=0.41378 Units=m
New Line.LINE212 Bus1=208 Bus2=213 phases=3 Linecode=4c_.06 Length=0.58767 Units=m
New Line.LINE216 Bus1=213 Bus2=217 phases=3 Linecode=4c_.06 Length=0.57892 Units=m
New Line.LINE219 Bus1=217 Bus2=220 phases=3 Linecode=4c_.06 Length=0.91609 Units=m
New Line.LINE222 Bus1=220 Bus2=223 phases=3 Linecode=4c_.06 Length=0.22917 Units=m
New Line.LINE225 Bus1=223 Bus2=226 phases=3 Linecode=4c_.06 Length=0.24681 Units=m
New Line.LINE228 Bus1=226 Bus2=229 phases=3 Linecode=4c_.06 Length=0.23084 Units=m
New Line.LINE232 Bus1=229 Bus2=233 phases=3 Linecode=4c_.06 Length=0.18166 Units=m
New Line.LINE236 Bus1=233 Bus2=237 phases=3 Linecode=4c_.06 Length=0.20063 Units=m
New Line.LINE240 Bus1=237 Bus2=241 phases=3 Linecode=25_SAC_PC Length=9.9648 Units=m
New Line.LINE308 Bus1=303 Bus2=309 phases=3 Linecode=25_SAC_PC Length=1.5065 Units=m
New Line.LINE424 Bus1=420 Bus2=425 phases=3 Linecode=2c_.0225 Length=0.54633 Units=m
New Line.LINE466 Bus1=462 Bus2=467 phases=3 Linecode=25_SAC_PC Length=0.4328 Units=m
New Line.LINE487 Bus1=483 Bus2=488 phases=3 Linecode=2c_.0225 Length=2.2152 Units=m
New Line.LINE488 Bus1=483 Bus2=489 phases=3 Linecode=2c_.0225 Length=2.5482 Units=m
New Line.LINE494 Bus1=488 Bus2=495 phases=3 Linecode=3c_.06_UA Length=2.6885 Units=m
New Line.LINE496 Bus1=489 Bus2=497 phases=3 Linecode=3c_.06_UA Length=2.7606 Units=m
New Line.LINE632 Bus1=631 Bus2=633 phases=3 Linecode=4c_.2 Length=0.63909 Units=m
New Line.LINE636 Bus1=633 Bus2=637 phases=3 Linecode=2c_.0225 Length=0.3673 Units=m
New Line.LINE640 Bus1=637 Bus2=641 phases=3 Linecode=2c_.0225 Length=0.22674 Units=m
New Line.LINE644 Bus1=641 Bus2=645 phases=3 Linecode=2c_.0225 Length=1.4981 Units=m
New Line.LINE648 Bus1=645 Bus2=649 phases=3 Linecode=2c_.0225 Length=9.8302 Units=m
New Line.LINE652 Bus1=649 Bus2=653 phases=3 Linecode=2c_.0225 Length=0.37039 Units=m
New Line.LINE656 Bus1=653 Bus2=657 phases=3 Linecode=2c_.0225 Length=0.25803 Units=m
New Line.LINE660 Bus1=657 Bus2=661 phases=3 Linecode=2c_.0225 Length=0.33469 Units=m
New Line.LINE664 Bus1=661 Bus2=665 phases=3 Linecode=2c_.0225 Length=0.33549 Units=m
New Line.LINE667 Bus1=665 Bus2=668 phases=3 Linecode=2c_.0225 Length=0.49081 Units=m
New Line.LINE670 Bus1=668 Bus2=671 phases=3 Linecode=2c_.0225 Length=1.1053 Units=m
New Line.LINE673 Bus1=671 Bus2=674 phases=3 Linecode=2c_.0225 Length=0.053038 Units=m
New Line.LINE676 Bus1=674 Bus2=677 phases=3 Linecode=2c_.0225 Length=0.24865 Units=m
New Line.LINE679 Bus1=677 Bus2=680 phases=3 Linecode=2c_.0225 Length=0.23744 Units=m
New Line.LINE682 Bus1=680 Bus2=683 phases=3 Linecode=2c_.0225 Length=0.24026 Units=m
New Line.LINE685 Bus1=683 Bus2=686 phases=3 Linecode=2c_.0225 Length=0.31976 Units=m
New Line.LINE688 Bus1=686 Bus2=689 phases=3 Linecode=2c_.0225 Length=0.49072 Units=m
New Line.LINE691 Bus1=689 Bus2=692 phases=3 Linecode=2c_.0225 Length=1.9504 Units=m
New Line.LINE694 Bus1=692 Bus2=695 phases=3 Linecode=2c_.0225 Length=0.207 Units=m
New Line.LINE697 Bus1=695 Bus2=698 phases=3 Linecode=2c_.0225 Length=0.11621 Units=m
New Line.LINE700 Bus1=698 Bus2=701 phases=3 Linecode=2c_.0225 Length=0.1122 Units=m
New Line.LINE703 Bus1=701 Bus2=704 phases=3 Linecode=2c_.0225 Length=0.34892 Units=m
New Line.LINE707 Bus1=704 Bus2=708 phases=3 Linecode=2c_.0225 Length=0.15173 Units=m
New Line.LINE711 Bus1=708 Bus2=712 phases=3 Linecode=2c_.0225 Length=0.13354 Units=m
New Line.LINE715 Bus1=712 Bus2=716 phases=3 Linecode=2c_.0225 Length=0.79692 Units=m
New Line.LINE720 Bus1=716 Bus2=721 phases=3 Linecode=2c_.0225 Length=0.71051 Units=m
New Line.LINE730 Bus1=726 Bus2=731 phases=3 Linecode=2c_.0225 Length=2.1188 Units=m
New Line.LINE731 Bus1=727 Bus2=732 phases=3 Linecode=4c_.007_UA Length=1.4433 Units=m
New Line.LINE736 Bus1=732 Bus2=737 phases=3 Linecode=4c_.075_UA Length=0.76497 Units=m
New Line.LINE741 Bus1=737 Bus2=742 phases=3 Linecode=4c_.075_UA Length=0.52069 Units=m
New Line.LINE746 Bus1=742 Bus2=747 phases=3 Linecode=4c_.075_UA Length=0.6447 Units=m
New Line.LINE748 Bus1=743 Bus2=749 phases=3 Linecode=2c_.0225 Length=4.8645 Units=m
New Line.LINE752 Bus1=747 Bus2=753 phases=3 Linecode=4c_.075_UA Length=0.92788 Units=m
New Line.LINE757 Bus1=753 Bus2=758 phases=3 Linecode=4c_.075_UA Length=1.2368 Units=m
New Line.LINE762 Bus1=758 Bus2=763 phases=3 Linecode=4c_.075_UA Length=0.78474 Units=m
New Line.LINE767 Bus1=763 Bus2=768 phases=3 Linecode=4c_.075_UA Length=1.9818 Units=m
New Line.LINE773 Bus1=768 Bus2=774 phases=3 Linecode=4c_.075_UA Length=2.8776 Units=m
New Line.LINE779 Bus1=774 Bus2=780 phases=3 Linecode=4c_.075_UA Length=3.9968 Units=m
New Line.LINE785 Bus1=780 Bus2=786 phases=3 Linecode=4c_.075_UA Length=3.6942 Units=m
New Line.LINE791 Bus1=786 Bus2=792 phases=3 Linecode=4c_.075_UA Length=2.6878 Units=m
New Line.LINE798 Bus1=792 Bus2=799 phases=3 Linecode=4c_.075_UA Length=2.8188 Units=m
New Line.LINE806 Bus1=799 Bus2=807 phases=3 Linecode=4c_.075_UA Length=1.7461 Units=m
New Line.LINE814 Bus1=807 Bus2=815 phases=3 Linecode=4c_.075_UA Length=7.1114 Units=m
New Line.LINE822 Bus1=815 Bus2=823 phases=3 Linecode=4c_.075_UA Length=0.44385 Units=m
New Line.LINE830 Bus1=823 Bus2=831 phases=3 Linecode=4c_.075_UA Length=0.3608 Units=m
New Line.LINE838 Bus1=831 Bus2=839 phases=3 Linecode=4c_.075_UA Length=0.19486 Units=m
New Line.LINE846 Bus1=839 Bus2=847 phases=3 Linecode=4c_.075_UA Length=0.25544 Units=m
New Line.LINE853 Bus1=847 Bus2=854 phases=3 Linecode=2c_.0225 Length=0.17674 Units=m
New Line.LINE860 Bus1=854 Bus2=861 phases=3 Linecode=2c_.0225 Length=0.23322 Units=m
New Line.LINE867 Bus1=861 Bus2=868 phases=3 Linecode=2c_.0225 Length=0.2441 Units=m
New Line.LINE874 Bus1=868 Bus2=875 phases=3 Linecode=2c_.0225 Length=0.23286 Units=m
New Line.LINE881 Bus1=875 Bus2=882 phases=3 Linecode=2c_.0225 Length=0.25372 Units=m
New Line.LINE888 Bus1=882 Bus2=889 phases=3 Linecode=2c_.0225 Length=0.27851 Units=m
New Line.LINE894 Bus1=889 Bus2=895 phases=3 Linecode=2c_.0225 Length=0.40845 Units=m
New Line.LINE900 Bus1=895 Bus2=901 phases=3 Linecode=2c_.0225 Length=3.6754 Units=m
New Line.LINE906 Bus1=901 Bus2=907 phases=3 Linecode=2c_.0225 Length=0.65882 Units=m
New Line.LINE911 Bus1=905 Bus2=912 phases=3 Linecode=2c_.0225 Length=3.3809 Units=m
New Line.LINE913 Bus1=907 Bus2=914 phases=3 Linecode=2c_.0225 Length=0.4761 Units=m
New Line.LINE919 Bus1=913 Bus2=920 phases=3 Linecode=4c_.2 Length=1.9856 Units=m
New Line.LINE920 Bus1=914 Bus2=921 phases=3 Linecode=2c_.0225 Length=2.1298 Units=m
New Line.LINE926 Bus1=920 Bus2=927 phases=3 Linecode=4c_.2 Length=2.1377 Units=m
New Line.LINE927 Bus1=921 Bus2=928 phases=3 Linecode=2c_.0225 Length=3.5481 Units=m
New Line.LINE933 Bus1=927 Bus2=934 phases=3 Linecode=4c_.2 Length=0.99134 Units=m
New Line.LINE935 Bus1=928 Bus2=936 phases=3 Linecode=2c_.0225 Length=0.78377 Units=m
New Line.LINE941 Bus1=933 Bus2=942 phases=3 Linecode=2c_.0225 Length=4.869 Units=m
New Line.LINE942 Bus1=934 Bus2=943 phases=3 Linecode=4c_.2 Length=2.8096 Units=m
New Line.LINE949 Bus1=943 Bus2=950 phases=3 Linecode=4c_.2 Length=1.3192 Units=m
New Line.LINE956 Bus1=950 Bus2=957 phases=3 Linecode=4c_.2 Length=1.2867 Units=m
New Line.LINE963 Bus1=957 Bus2=964 phases=3 Linecode=4c_.2 Length=1.9451 Units=m
New Line.LINE970 Bus1=964 Bus2=971 phases=3 Linecode=4c_.2 Length=2.333 Units=m
New Line.LINE977 Bus1=971 Bus2=978 phases=3 Linecode=4c_.2 Length=2.2855 Units=m
New Line.LINE984 Bus1=978 Bus2=985 phases=3 Linecode=4c_.2 Length=1.2152 Units=m
New Line.LINE990 Bus1=985 Bus2=991 phases=3 Linecode=4c_.2 Length=1.4681 Units=m
New Line.LINE996 Bus1=991 Bus2=997 phases=3 Linecode=2c_.0225 Length=0.36942 Units=m
New Line.LINE1002 Bus1=997 Bus2=1003 phases=3 Linecode=2c_.0225 Length=0.057689 Units=m
New Line.LINE1007 Bus1=1003 Bus2=1008 phases=3 Linecode=2c_.0225 Length=0.35224 Units=m
New Line.LINE1012 Bus1=1008 Bus2=1013 phases=3 Linecode=2c_.0225 Length=0.60245 Units=m
New Line.LINE1015 Bus1=1010 Bus2=1016 phases=3 Linecode=2c_.0225 Length=1.5091 Units=m
New Line.LINE1018 Bus1=1013 Bus2=1019 phases=3 Linecode=2c_.0225 Length=0.97537 Units=m
New Line.LINE1023 Bus1=1019 Bus2=1024 phases=3 Linecode=2c_.0225 Length=1.1469 Units=m
New Line.LINE1028 Bus1=1024 Bus2=1029 phases=3 Linecode=2c_.0225 Length=1.1741 Units=m
New Line.LINE1033 Bus1=1029 Bus2=1034 phases=3 Linecode=2c_.0225 Length=1.5777 Units=m
New Line.LINE1038 Bus1=1034 Bus2=1039 phases=3 Linecode=2c_.0225 Length=1.4627 Units=m
New Line.LINE1043 Bus1=1039 Bus2=1044 phases=3 Linecode=2c_.0225 Length=1.1469 Units=m
New Line.LINE1048 Bus1=1044 Bus2=1049 phases=3 Linecode=2c_.0225 Length=0.37377 Units=m
New Line.LINE1053 Bus1=1049 Bus2=1054 phases=3 Linecode=2c_.0225 Length=0.21764 Units=m
New Line.LINE1058 Bus1=1054 Bus2=1059 phases=3 Linecode=2c_.0225 Length=0.24627 Units=m
New Line.LINE1063 Bus1=1059 Bus2=1064 phases=3 Linecode=2c_.0225 Length=0.77302 Units=m
New Line.LINE1068 Bus1=1064 Bus2=1069 phases=3 Linecode=2c_.0225 Length=2.5977 Units=m
New Line.LINE1074 Bus1=1069 Bus2=1075 phases=3 Linecode=3c_.06_UA Length=5.9513 Units=m
New Line.LINE1090 Bus1=1086 Bus2=1091 phases=3 Linecode=3c_.06_UA Length=5.1457 Units=m
New Line.LINECmpd_0 Bus1=743 Bus2=994 phases=3 Linecode=2c_.0225 Length=15.716393 Units=m
New Line.LINECmpd_1 Bus1=1086 Bus2=1162 phases=3 Linecode=2c_.0225 Length=12.022873 Units=m
New Line.LINECmpd_2 Bus1=905 Bus2=1083 phases=3 Linecode=2c_.0225 Length=10.143813 Units=m
New Line.LINECmpd_3 Bus1=420 Bus2=591 phases=3 Linecode=2c_.0225 Length=12.659181 Units=m
New Line.LINECmpd_4 Bus1=631 Bus2=726 phases=3 Linecode=2c_.0225 Length=19.26048 Units=m
New Line.LINECmpd_5 Bus1=726 Bus2=894 phases=3 Linecode=2c_.0225 Length=11.764199 Units=m
New Line.LINECmpd_6 Bus1=703 Bus2=893 phases=3 Linecode=4c_.2 Length=35.68966 Units=m
New Line.LINECmpd_7 Bus1=716 Bus2=845 phases=3 Linecode=2c_.0225 Length=11.169188 Units=m
New Line.LINECmpd_8 Bus1=254 Bus2=420 phases=3 Linecode=2c_.0225 Length=24.918676 Units=m
New Line.LINECmpd_9 Bus1=473 Bus2=625 phases=3 Linecode=4c_.2 Length=29.83415 Units=m
New Line.LINECmpd_10 Bus1=625 Bus2=703 phases=3 Linecode=4c_.2 Length=12.533753 Units=m
New Line.LINECmpd_11 Bus1=488 Bus2=617 phases=3 Linecode=2c_.0225 Length=15.192066 Units=m
New Line.LINECmpd_12 Bus1=1 Bus2=31 phases=3 Linecode=4c_.2 Length=38.289262 Units=m
New Line.LINECmpd_13 Bus1=85 Bus2=186 phases=3 Linecode=4c_.2 Length=36.06476 Units=m
New Line.LINECmpd_14 Bus1=489 Bus2=624 phases=3 Linecode=2c_.0225 Length=12.503078 Units=m
New Line.LINECmpd_15 Bus1=1010 Bus2=1112 phases=3 Linecode=2c_.0225 Length=9.682554 Units=m
New Line.LINECmpd_16 Bus1=893 Bus2=905 phases=3 Linecode=2c_.0225 Length=7.72675 Units=m
New Line.LINECmpd_17 Bus1=763 Bus2=1010 phases=3 Linecode=2c_.0225 Length=19.85121 Units=m
New Line.LINECmpd_18 Bus1=81 Bus2=174 phases=3 Linecode=2c_.0225 Length=32.79054 Units=m
New Line.LINECmpd_19 Bus1=933 Bus2=1116 phases=3 Linecode=2c_.0225 Length=13.007368 Units=m
New Line.LINECmpd_20 Bus1=462 Bus2=547 phases=3 Linecode=25_SAC_PC Length=12.04998 Units=m
New Line.LINECmpd_21 Bus1=238 Bus2=462 phases=3 Linecode=25_SAC_PC Length=29.900066 Units=m
New Line.LINECmpd_22 Bus1=80 Bus2=118 phases=3 Linecode=2c_.0225 Length=8.34936 Units=m
New Line.LINECmpd_23 Bus1=703 Bus2=727 phases=3 Linecode=4c_.007_UA Length=3.7894 Units=m
New Line.LINECmpd_24 Bus1=1069 Bus2=1157 phases=3 Linecode=2c_.0225 Length=11.730995 Units=m
New Line.LINECmpd_25 Bus1=31 Bus2=80 phases=3 Linecode=2c_.0225 Length=18.81148 Units=m
New Line.LINECmpd_26 Bus1=254 Bus2=473 phases=3 Linecode=4c_.2 Length=33.35319 Units=m
New Line.LINECmpd_27 Bus1=31 Bus2=81 phases=3 Linecode=4c_.2 Length=50.26773 Units=m
New Line.LINECmpd_28 Bus1=186 Bus2=238 phases=3 Linecode=4c_.2 Length=29.06574 Units=m
New Line.LINECmpd_29 Bus1=893 Bus2=913 phases=3 Linecode=4c_.2 Length=10.2143 Units=m
New Line.LINECmpd_30 Bus1=85 Bus2=180 phases=3 Linecode=2c_.0225 Length=34.98571 Units=m
New Line.LINECmpd_31 Bus1=928 Bus2=979 phases=3 Linecode=2c_.0225 Length=7.97471 Units=m
New Line.LINECmpd_32 Bus1=174 Bus2=215 phases=3 Linecode=2c_.0225 Length=11.65914 Units=m
New Line.LINECmpd_33 Bus1=913 Bus2=933 phases=3 Linecode=2c_.0225 Length=8.87268 Units=m
New Line.LINECmpd_34 Bus1=1064 Bus2=1086 phases=3 Linecode=2c_.0225 Length=2.8674 Units=m
New Line.LINECmpd_35 Bus1=241 Bus2=303 phases=3 Linecode=25_SAC_PC Length=10.811753 Units=m
New Line.LINECmpd_36 Bus1=303 Bus2=353 phases=3 Linecode=25_SAC_PC Length=11.35271 Units=m
New Line.LINECmpd_37 Bus1=727 Bus2=743 phases=3 Linecode=2c_.0225 Length=14.84252 Units=m
New Line.LINECmpd_38 Bus1=625 Bus2=631 phases=3 Linecode=4c_.2 Length=1.2161 Units=m
New Line.LINECmpd_39 Bus1=238 Bus2=254 phases=3 Linecode=4c_.2 Length=1.31039 Units=m
New Line.LINECmpd_40 Bus1=241 Bus2=278 phases=3 Linecode=2c_.0225 Length=16.24539 Units=m
New Line.LINECmpd_41 Bus1=473 Bus2=483 phases=3 Linecode=2c_.0225 Length=12.3403 Units=m
