New Line.LINE184_82 Bus1=184_80 Bus2=184_83 phases=3 Linecode=2c_.0225 Length=1.6337 Units=m
New Line.LINE184_84 Bus1=184_81 Bus2=184_85 phases=3 Linecode=4c_.2 Length=0.65744 Units=m
New Line.LINE184_178 Bus1=184_174 Bus2=184_179 phases=3 Linecode=2c_.0225 Length=2.3584 Units=m
New Line.LINE184_240 Bus1=184_237 Bus2=184_241 phases=3 Linecode=25_SAC_PC Length=9.9648 Units=m
New Line.LINE184_308 Bus1=184_303 Bus2=184_309 phases=3 Linecode=25_SAC_PC Length=1.5065 Units=m
New Line.LINE184_424 Bus1=184_420 Bus2=184_425 phases=3 Linecode=2c_.0225 Length=0.54633 Units=m
New Line.LINE184_466 Bus1=184_462 Bus2=184_467 phases=3 Linecode=25_SAC_PC Length=0.4328 Units=m
New Line.LINE184_487 Bus1=184_483 Bus2=184_488 phases=3 Linecode=2c_.0225 Length=2.2152 Units=m
New Line.LINE184_488 Bus1=184_483 Bus2=184_489 phases=3 Linecode=2c_.0225 Length=2.5482 Units=m
New Line.LINE184_494 Bus1=184_488 Bus2=184_495 phases=3 Linecode=3c_.06_UA Length=2.6885 Units=m
New Line.LINE184_496 Bus1=184_489 Bus2=184_497 phases=3 Linecode=3c_.06_UA Length=2.7606 Units=m
New Line.LINE184_632 Bus1=184_631 Bus2=184_633 phases=3 Linecode=4c_.2 Length=0.63909 Units=m
New Line.LINE184_720 Bus1=184_716 Bus2=184_721 phases=3 Linecode=2c_.0225 Length=0.71051 Units=m
New Line.LINE184_730 Bus1=184_726 Bus2=184_731 phases=3 Linecode=2c_.0225 Length=2.1188 Units=m
New Line.LINE184_731 Bus1=184_727 Bus2=184_732 phases=3 Linecode=4c_.007_UA Length=1.4433 Units=m
New Line.LINE184_748 Bus1=184_743 Bus2=184_749 phases=3 Linecode=2c_.0225 Length=4.8645 Units=m
New Line.LINE184_911 Bus1=184_905 Bus2=184_912 phases=3 Linecode=2c_.0225 Length=3.3809 Units=m
New Line.LINE184_935 Bus1=184_928 Bus2=184_936 phases=3 Linecode=2c_.0225 Length=0.78377 Units=m
New Line.LINE184_941 Bus1=184_933 Bus2=184_942 phases=3 Linecode=2c_.0225 Length=4.869 Units=m
New Line.LINE184_1015 Bus1=184_1010 Bus2=184_1016 phases=3 Linecode=2c_.0225 Length=1.5091 Units=m
New Line.LINE184_1068 Bus1=184_1064 Bus2=184_1069 phases=3 Linecode=2c_.0225 Length=2.5977 Units=m
New Line.LINE184_1074 Bus1=184_1069 Bus2=184_1075 phases=3 Linecode=3c_.06_UA Length=5.9513 Units=m
New Line.LINE184_1090 Bus1=184_1086 Bus2=184_1091 phases=3 Linecode=3c_.06_UA Length=5.1457 Units=m
New Line.LINE184_Cmpd_0 Bus1=184_732 Bus2=184_763 phases=3 Linecode=4c_.075_UA Length=4.87978 Units=m
New Line.LINE184_Cmpd_1 Bus1=184_238 Bus2=184_462 phases=3 Linecode=25_SAC_PC Length=29.900066 Units=m
New Line.LINE184_Cmpd_2 Bus1=184_489 Bus2=184_624 phases=3 Linecode=2c_.0225 Length=12.503078 Units=m
New Line.LINE184_Cmpd_3 Bus1=184_1010 Bus2=184_1112 phases=3 Linecode=2c_.0225 Length=9.682554 Units=m
New Line.LINE184_Cmpd_4 Bus1=184_31 Bus2=184_81 phases=3 Linecode=4c_.2 Length=50.26773 Units=m
New Line.LINE184_Cmpd_5 Bus1=184_31 Bus2=184_80 phases=3 Linecode=2c_.0225 Length=18.81148 Units=m
New Line.LINE184_Cmpd_6 Bus1=184_933 Bus2=184_1116 phases=3 Linecode=2c_.0225 Length=13.007368 Units=m
New Line.LINE184_Cmpd_7 Bus1=184_743 Bus2=184_994 phases=3 Linecode=2c_.0225 Length=15.716393 Units=m
New Line.LINE184_Cmpd_8 Bus1=184_488 Bus2=184_617 phases=3 Linecode=2c_.0225 Length=15.192066 Units=m
New Line.LINE184_Cmpd_9 Bus1=184_631 Bus2=184_726 phases=3 Linecode=2c_.0225 Length=19.26048 Units=m
New Line.LINE184_Cmpd_10 Bus1=184_473 Bus2=184_625 phases=3 Linecode=4c_.2 Length=29.83415 Units=m
New Line.LINE184_Cmpd_11 Bus1=184_85 Bus2=184_186 phases=3 Linecode=4c_.2 Length=36.06476 Units=m
New Line.LINE184_Cmpd_12 Bus1=184_763 Bus2=184_1010 phases=3 Linecode=2c_.0225 Length=19.85121 Units=m
New Line.LINE184_Cmpd_13 Bus1=184_716 Bus2=184_845 phases=3 Linecode=2c_.0225 Length=11.169188 Units=m
New Line.LINE184_Cmpd_14 Bus1=184_81 Bus2=184_174 phases=3 Linecode=2c_.0225 Length=32.79054 Units=m
New Line.LINE184_Cmpd_15 Bus1=184_1069 Bus2=184_1157 phases=3 Linecode=2c_.0225 Length=11.730995 Units=m
New Line.LINE184_Cmpd_16 Bus1=184_420 Bus2=184_591 phases=3 Linecode=2c_.0225 Length=12.659181 Units=m
New Line.LINE184_Cmpd_17 Bus1=184_254 Bus2=184_420 phases=3 Linecode=2c_.0225 Length=24.918676 Units=m
New Line.LINE184_Cmpd_18 Bus1=184_703 Bus2=184_893 phases=3 Linecode=4c_.2 Length=35.68966 Units=m
New Line.LINE184_Cmpd_19 Bus1=184_1 Bus2=184_31 phases=3 Linecode=4c_.2 Length=38.289262 Units=m
New Line.LINE184_Cmpd_20 Bus1=184_254 Bus2=184_473 phases=3 Linecode=4c_.2 Length=33.35319 Units=m
New Line.LINE184_Cmpd_21 Bus1=184_991 Bus2=184_1064 phases=3 Linecode=2c_.0225 Length=10.476169 Units=m
New Line.LINE184_Cmpd_22 Bus1=184_462 Bus2=184_547 phases=3 Linecode=25_SAC_PC Length=12.04998 Units=m
New Line.LINE184_Cmpd_23 Bus1=184_625 Bus2=184_703 phases=3 Linecode=4c_.2 Length=12.533753 Units=m
New Line.LINE184_Cmpd_24 Bus1=184_238 Bus2=184_254 phases=3 Linecode=4c_.2 Length=1.31039 Units=m
New Line.LINE184_Cmpd_25 Bus1=184_905 Bus2=184_1083 phases=3 Linecode=2c_.0225 Length=10.143813 Units=m
New Line.LINE184_Cmpd_26 Bus1=184_726 Bus2=184_894 phases=3 Linecode=2c_.0225 Length=11.764199 Units=m
New Line.LINE184_Cmpd_27 Bus1=184_85 Bus2=184_180 phases=3 Linecode=2c_.0225 Length=34.98571 Units=m
New Line.LINE184_Cmpd_28 Bus1=184_913 Bus2=184_991 phases=3 Linecode=4c_.2 Length=19.77704 Units=m
New Line.LINE184_Cmpd_29 Bus1=184_763 Bus2=184_847 phases=3 Linecode=4c_.075_UA Length=28.16945 Units=m
New Line.LINE184_Cmpd_30 Bus1=184_80 Bus2=184_118 phases=3 Linecode=2c_.0225 Length=8.34936 Units=m
New Line.LINE184_Cmpd_31 Bus1=184_186 Bus2=184_237 phases=3 Linecode=4c_.06 Length=4.98595 Units=m
New Line.LINE184_Cmpd_32 Bus1=184_703 Bus2=184_727 phases=3 Linecode=4c_.007_UA Length=3.7894 Units=m
New Line.LINE184_Cmpd_33 Bus1=184_1086 Bus2=184_1162 phases=3 Linecode=2c_.0225 Length=12.022873 Units=m
New Line.LINE184_Cmpd_34 Bus1=184_186 Bus2=184_238 phases=3 Linecode=4c_.2 Length=29.06574 Units=m
New Line.LINE184_Cmpd_35 Bus1=184_241 Bus2=184_278 phases=3 Linecode=2c_.0225 Length=16.24539 Units=m
New Line.LINE184_Cmpd_36 Bus1=184_847 Bus2=184_928 phases=3 Linecode=2c_.0225 Length=12.31582 Units=m
New Line.LINE184_Cmpd_37 Bus1=184_1064 Bus2=184_1086 phases=3 Linecode=2c_.0225 Length=2.8674 Units=m
New Line.LINE184_Cmpd_38 Bus1=184_241 Bus2=184_303 phases=3 Linecode=25_SAC_PC Length=10.811753 Units=m
New Line.LINE184_Cmpd_39 Bus1=184_174 Bus2=184_215 phases=3 Linecode=2c_.0225 Length=11.65914 Units=m
New Line.LINE184_Cmpd_40 Bus1=184_633 Bus2=184_716 phases=3 Linecode=2c_.0225 Length=20.223838 Units=m
New Line.LINE184_Cmpd_41 Bus1=184_303 Bus2=184_353 phases=3 Linecode=25_SAC_PC Length=11.35271 Units=m
New Line.LINE184_Cmpd_42 Bus1=184_928 Bus2=184_979 phases=3 Linecode=2c_.0225 Length=7.97471 Units=m
New Line.LINE184_Cmpd_43 Bus1=184_913 Bus2=184_933 phases=3 Linecode=2c_.0225 Length=8.87268 Units=m
New Line.LINE184_Cmpd_44 Bus1=184_893 Bus2=184_905 phases=3 Linecode=2c_.0225 Length=7.72675 Units=m
New Line.LINE184_Cmpd_45 Bus1=184_893 Bus2=184_913 phases=3 Linecode=4c_.2 Length=10.2143 Units=m
New Line.LINE184_Cmpd_46 Bus1=184_473 Bus2=184_483 phases=3 Linecode=2c_.0225 Length=12.3403 Units=m
New Line.LINE184_Cmpd_47 Bus1=184_625 Bus2=184_631 phases=3 Linecode=4c_.2 Length=1.2161 Units=m
New Line.LINE184_Cmpd_48 Bus1=184_727 Bus2=184_743 phases=3 Linecode=2c_.0225 Length=14.84252 Units=m
