New Generator.GEN11 Bus1=1102.2 kV=0.213 kW=0 PF=1
New Generator.GEN12 Bus1=1104.3 kV=0.213 kW=0 PF=1
New Generator.GEN13 Bus1=1141.3 kV=0.213 kW=0 PF=1
New Generator.GEN14 Bus1=1212.2 kV=0.213 kW=0 PF=1
New Generator.GEN15 Bus1=1217.1 kV=0.213 kW=0 PF=1
New Generator.GEN16 Bus1=1228.3 kV=0.213 kW=0 PF=1
New Generator.GEN17 Bus1=1232.2 kV=0.213 kW=0 PF=1
New Generator.GEN18 Bus1=1258.3 kV=0.213 kW=0 PF=1
New Generator.GEN19 Bus1=1267.2 kV=0.213 kW=0 PF=1
New Generator.GEN110 Bus1=1281.1 kV=0.213 kW=0 PF=1
New Generator.GEN111 Bus1=1296.1 kV=0.213 kW=0 PF=1
New Generator.GEN112 Bus1=1310.2 kV=0.213 kW=0 PF=1
New Generator.GEN113 Bus1=1352.3 kV=0.213 kW=0 PF=1
New Generator.GEN114 Bus1=1412.2 kV=0.213 kW=0 PF=1
New Generator.GEN115 Bus1=1433.3 kV=0.213 kW=0 PF=1
New Generator.GEN116 Bus1=1434.1 kV=0.213 kW=0 PF=1
New Generator.GEN117 Bus1=1441.2 kV=0.213 kW=0 PF=1
New Generator.GEN118 Bus1=1442.2 kV=0.213 kW=0 PF=1
New Generator.GEN119 Bus1=1446.3 kV=0.213 kW=0 PF=1
New Generator.GEN120 Bus1=1465.3 kV=0.213 kW=0 PF=1
New Generator.GEN121 Bus1=1481.2 kV=0.213 kW=0 PF=1
New Generator.GEN122 Bus1=1493.2 kV=0.213 kW=0 PF=1
New Generator.GEN123 Bus1=1507.2 kV=0.213 kW=0 PF=1
New Generator.GEN124 Bus1=1518.2 kV=0.213 kW=0 PF=1
New Generator.GEN125 Bus1=1531.2 kV=0.213 kW=0 PF=1
New Generator.GEN126 Bus1=1560.2 kV=0.213 kW=0 PF=1
New Generator.GEN127 Bus1=1590.1 kV=0.213 kW=0 PF=1
New Generator.GEN128 Bus1=1620.1 kV=0.213 kW=0 PF=1
New Generator.GEN129 Bus1=1679.3 kV=0.213 kW=0 PF=1
New Generator.GEN130 Bus1=1700.3 kV=0.213 kW=0 PF=1
New Generator.GEN131 Bus1=1702.2 kV=0.213 kW=0 PF=1
New Generator.GEN132 Bus1=1713.3 kV=0.213 kW=0 PF=1
New Generator.GEN133 Bus1=1748.2 kV=0.213 kW=0 PF=1
New Generator.GEN134 Bus1=1778.2 kV=0.213 kW=0 PF=1
New Generator.GEN135 Bus1=1797.3 kV=0.213 kW=0 PF=1
New Generator.GEN136 Bus1=1822.2 kV=0.213 kW=0 PF=1
New Generator.GEN137 Bus1=1823.2 kV=0.213 kW=0 PF=1
New Generator.GEN138 Bus1=1824.3 kV=0.213 kW=0 PF=1
New Generator.GEN139 Bus1=1840.3 kV=0.213 kW=0 PF=1
New Generator.GEN140 Bus1=1854.3 kV=0.213 kW=0 PF=1
New Generator.GEN141 Bus1=1855.2 kV=0.213 kW=0 PF=1
New Generator.GEN142 Bus1=1866.2 kV=0.213 kW=0 PF=1
New Generator.GEN143 Bus1=1873.2 kV=0.213 kW=0 PF=1
New Generator.GEN144 Bus1=1878.2 kV=0.213 kW=0 PF=1
New Generator.GEN145 Bus1=1890.1 kV=0.213 kW=0 PF=1
New Generator.GEN146 Bus1=1896.2 kV=0.213 kW=0 PF=1
New Generator.GEN147 Bus1=1897.2 kV=0.213 kW=0 PF=1
New Generator.GEN148 Bus1=1920.1 kV=0.213 kW=0 PF=1
New Generator.GEN149 Bus1=1921.1 kV=0.213 kW=0 PF=1
New Generator.GEN150 Bus1=1958.1 kV=0.213 kW=0 PF=1
New Generator.GEN151 Bus1=1968.1 kV=0.213 kW=0 PF=1
New Generator.GEN152 Bus1=11012.2 kV=0.213 kW=0 PF=1
New Generator.GEN153 Bus1=11025.3 kV=0.213 kW=0 PF=1
New Generator.GEN154 Bus1=11026.3 kV=0.213 kW=0 PF=1
New Generator.GEN155 Bus1=11045.1 kV=0.213 kW=0 PF=1
New Generator.GEN156 Bus1=11046.1 kV=0.213 kW=0 PF=1
New Generator.GEN157 Bus1=11070.2 kV=0.213 kW=0 PF=1
New Generator.GEN158 Bus1=11071.2 kV=0.213 kW=0 PF=1
New Generator.GEN159 Bus1=11114.1 kV=0.213 kW=0 PF=1
New Generator.GEN160 Bus1=11119.3 kV=0.213 kW=0 PF=1
New Generator.GEN161 Bus1=11120.3 kV=0.213 kW=0 PF=1
New Generator.GEN162 Bus1=11125.2 kV=0.213 kW=0 PF=1
New Generator.GEN163 Bus1=11126.2 kV=0.213 kW=0 PF=1
New Generator.GEN164 Bus1=11159.3 kV=0.213 kW=0 PF=1
New Generator.GEN165 Bus1=11165.1 kV=0.213 kW=0 PF=1
New Generator.GEN166 Bus1=11174.2 kV=0.213 kW=0 PF=1
New Generator.GEN167 Bus1=11192.1 kV=0.213 kW=0 PF=1
New Generator.GEN168 Bus1=11201.1 kV=0.213 kW=0 PF=1
New Generator.GEN169 Bus1=11211.2 kV=0.213 kW=0 PF=1
New Generator.GEN170 Bus1=11252.2 kV=0.213 kW=0 PF=1
New Generator.GEN171 Bus1=11253.2 kV=0.213 kW=0 PF=1
New Generator.GEN172 Bus1=11254.3 kV=0.213 kW=0 PF=1
New Generator.GEN173 Bus1=11255.3 kV=0.213 kW=0 PF=1
New Generator.GEN174 Bus1=11281.3 kV=0.213 kW=0 PF=1
New Generator.GEN175 Bus1=11282.3 kV=0.213 kW=0 PF=1
New Generator.GEN176 Bus1=11316.1 kV=0.213 kW=0 PF=1
New Generator.GEN177 Bus1=11317.1 kV=0.213 kW=0 PF=1
New Generator.GEN178 Bus1=11319.1 kV=0.213 kW=0 PF=1
New Generator.GEN179 Bus1=11334.2 kV=0.213 kW=0 PF=1
New Generator.GEN180 Bus1=11335.2 kV=0.213 kW=0 PF=1
New Generator.GEN181 Bus1=11344.1 kV=0.213 kW=0 PF=1
New Generator.GEN182 Bus1=11345.1 kV=0.213 kW=0 PF=1
New Generator.GEN183 Bus1=11355.3 kV=0.213 kW=0 PF=1
New Generator.GEN184 Bus1=11369.1 kV=0.213 kW=0 PF=1
New Generator.GEN185 Bus1=11371.2 kV=0.213 kW=0 PF=1
New Generator.GEN186 Bus1=11397.2 kV=0.213 kW=0 PF=1
New Generator.GEN187 Bus1=11413.2 kV=0.213 kW=0 PF=1
New Generator.GEN188 Bus1=11419.3 kV=0.213 kW=0 PF=1
New Generator.GEN189 Bus1=11420.3 kV=0.213 kW=0 PF=1
New Generator.GEN190 Bus1=11436.2 kV=0.213 kW=0 PF=1
New Generator.GEN191 Bus1=11449.2 kV=0.213 kW=0 PF=1
New Generator.GEN192 Bus1=11478.1 kV=0.213 kW=0 PF=1
New Generator.GEN193 Bus1=11486.2 kV=0.213 kW=0 PF=1
New Generator.GEN194 Bus1=11488.3 kV=0.213 kW=0 PF=1
New Generator.GEN195 Bus1=11504.1 kV=0.213 kW=0 PF=1
New Generator.GEN196 Bus1=11514.3 kV=0.213 kW=0 PF=1
New Generator.GEN197 Bus1=11515.3 kV=0.213 kW=0 PF=1
New Generator.GEN198 Bus1=11530.1 kV=0.213 kW=0 PF=1
New Generator.GEN199 Bus1=11552.2 kV=0.213 kW=0 PF=1
New Generator.GEN1100 Bus1=11601.2 kV=0.213 kW=0 PF=1
New Generator.GEN1101 Bus1=11611.3 kV=0.213 kW=0 PF=1
New Generator.GEN1102 Bus1=11626.2 kV=0.213 kW=0 PF=1
New Generator.GEN1103 Bus1=11652.3 kV=0.213 kW=0 PF=1
New Generator.GEN1104 Bus1=11678.2 kV=0.213 kW=0 PF=1
New Generator.GEN1105 Bus1=11681.1 kV=0.213 kW=0 PF=1
New Generator.GEN1106 Bus1=11685.1 kV=0.213 kW=0 PF=1
New Generator.GEN1107 Bus1=11687.1 kV=0.213 kW=0 PF=1
New Generator.GEN1108 Bus1=11689.3 kV=0.213 kW=0 PF=1
New Generator.GEN1109 Bus1=11695.1 kV=0.213 kW=0 PF=1
New Generator.GEN1110 Bus1=11703.3 kV=0.213 kW=0 PF=1
New Generator.GEN1111 Bus1=11709.3 kV=0.213 kW=0 PF=1
New Generator.GEN1112 Bus1=11726.3 kV=0.213 kW=0 PF=1
New Generator.GEN1113 Bus1=11741.1 kV=0.213 kW=0 PF=1
New Generator.GEN1114 Bus1=11764.1 kV=0.213 kW=0 PF=1
New Generator.GEN1115 Bus1=11782.1 kV=0.213 kW=0 PF=1
New Generator.GEN1116 Bus1=11797.2 kV=0.213 kW=0 PF=1
New Generator.GEN1117 Bus1=11808.3 kV=0.213 kW=0 PF=1
New Generator.GEN1118 Bus1=11811.1 kV=0.213 kW=0 PF=1
New Generator.GEN1119 Bus1=11894.1 kV=0.213 kW=0 PF=1
New Generator.GEN1120 Bus1=11902.3 kV=0.213 kW=0 PF=1
New Generator.GEN1121 Bus1=11929.1 kV=0.213 kW=0 PF=1
New Generator.GEN1122 Bus1=11939.3 kV=0.213 kW=0 PF=1
New Generator.GEN1123 Bus1=11944.1 kV=0.213 kW=0 PF=1
New Generator.GEN1124 Bus1=11969.3 kV=0.213 kW=0 PF=1
New Generator.GEN1125 Bus1=12019.2 kV=0.213 kW=0 PF=1
New Generator.GEN1126 Bus1=12021.2 kV=0.213 kW=0 PF=1
New Generator.GEN1127 Bus1=12110.3 kV=0.213 kW=0 PF=1
New Generator.GEN1128 Bus1=12157.1 kV=0.213 kW=0 PF=1
New Generator.GEN1129 Bus1=12163.3 kV=0.213 kW=0 PF=1
New Generator.GEN1130 Bus1=12183.2 kV=0.213 kW=0 PF=1
New Generator.GEN1131 Bus1=12190.1 kV=0.213 kW=0 PF=1
New Generator.GEN1132 Bus1=12192.2 kV=0.213 kW=0 PF=1
New Generator.GEN1133 Bus1=12194.2 kV=0.213 kW=0 PF=1
New Generator.GEN1134 Bus1=12216.2 kV=0.213 kW=0 PF=1
New Generator.GEN1135 Bus1=12243.2 kV=0.213 kW=0 PF=1
New Generator.GEN1136 Bus1=12279.3 kV=0.213 kW=0 PF=1
New Generator.GEN1137 Bus1=12280.3 kV=0.213 kW=0 PF=1
New Generator.GEN1138 Bus1=12288.2 kV=0.213 kW=0 PF=1
New Generator.GEN1139 Bus1=12298.3 kV=0.213 kW=0 PF=1
New Generator.GEN1140 Bus1=12300.1 kV=0.213 kW=0 PF=1
New Generator.GEN1141 Bus1=12306.3 kV=0.213 kW=0 PF=1
New Generator.GEN1142 Bus1=12328.2 kV=0.213 kW=0 PF=1
New Generator.GEN1143 Bus1=12330.1 kV=0.213 kW=0 PF=1
New Generator.GEN1144 Bus1=12369.3 kV=0.213 kW=0 PF=1
New Generator.GEN1145 Bus1=12371.1 kV=0.213 kW=0 PF=1
New Generator.GEN1146 Bus1=12379.2 kV=0.213 kW=0 PF=1
New Generator.GEN1147 Bus1=12429.1 kV=0.213 kW=0 PF=1
New Generator.GEN1148 Bus1=12464.3 kV=0.213 kW=0 PF=1
New Generator.GEN1149 Bus1=12465.3 kV=0.213 kW=0 PF=1
New Generator.GEN1150 Bus1=12469.1 kV=0.213 kW=0 PF=1
New Generator.GEN1151 Bus1=12471.1 kV=0.213 kW=0 PF=1
New Generator.GEN1152 Bus1=12472.2 kV=0.213 kW=0 PF=1
New Generator.GEN1153 Bus1=12483.2 kV=0.213 kW=0 PF=1
New Generator.GEN1154 Bus1=12494.1 kV=0.213 kW=0 PF=1
New Generator.GEN1155 Bus1=12513.2 kV=0.213 kW=0 PF=1
New Generator.GEN1156 Bus1=12517.2 kV=0.213 kW=0 PF=1
New Generator.GEN1157 Bus1=12535.2 kV=0.213 kW=0 PF=1
New Generator.GEN1158 Bus1=12548.3 kV=0.213 kW=0 PF=1
New Generator.GEN1159 Bus1=12575.1 kV=0.213 kW=0 PF=1
New Generator.GEN1160 Bus1=12577.2 kV=0.213 kW=0 PF=1
New Generator.GEN1161 Bus1=12586.2 kV=0.213 kW=0 PF=1
New Generator.GEN1162 Bus1=12596.3 kV=0.213 kW=0 PF=1
New Generator.GEN1163 Bus1=12598.1 kV=0.213 kW=0 PF=1
New Generator.GEN1164 Bus1=12603.2 kV=0.213 kW=0 PF=1
New Generator.GEN1165 Bus1=12615.2 kV=0.213 kW=0 PF=1
New Generator.GEN1166 Bus1=12633.3 kV=0.213 kW=0 PF=1
New Generator.GEN1167 Bus1=12654.1 kV=0.213 kW=0 PF=1
New Generator.GEN1168 Bus1=12672.2 kV=0.213 kW=0 PF=1
New Generator.GEN1169 Bus1=12683.1 kV=0.213 kW=0 PF=1
New Generator.GEN1170 Bus1=12712.2 kV=0.213 kW=0 PF=1
New Generator.GEN1171 Bus1=12724.2 kV=0.213 kW=0 PF=1
New Generator.GEN1172 Bus1=12729.1 kV=0.213 kW=0 PF=1
New Generator.GEN1173 Bus1=12753.3 kV=0.213 kW=0 PF=1
New Generator.GEN1174 Bus1=12754.1 kV=0.213 kW=0 PF=1
New Generator.GEN1175 Bus1=12755.2 kV=0.213 kW=0 PF=1
New Generator.GEN1176 Bus1=12757.3 kV=0.213 kW=0 PF=1
New Generator.GEN1177 Bus1=12759.1 kV=0.213 kW=0 PF=1
New Generator.GEN1178 Bus1=12781.2 kV=0.213 kW=0 PF=1
New Generator.GEN1179 Bus1=12785.3 kV=0.213 kW=0 PF=1
New Generator.GEN1180 Bus1=12787.3 kV=0.213 kW=0 PF=1
New Generator.GEN1181 Bus1=12792.3 kV=0.213 kW=0 PF=1
New Generator.GEN1182 Bus1=12803.3 kV=0.213 kW=0 PF=1
New Generator.GEN1183 Bus1=12804.2 kV=0.213 kW=0 PF=1
New Generator.GEN1184 Bus1=12815.3 kV=0.213 kW=0 PF=1
New Generator.GEN1185 Bus1=12816.2 kV=0.213 kW=0 PF=1
New Generator.GEN1186 Bus1=12824.1 kV=0.213 kW=0 PF=1
New Generator.GEN1187 Bus1=12831.2 kV=0.213 kW=0 PF=1
New Generator.GEN1188 Bus1=12837.3 kV=0.213 kW=0 PF=1
New Generator.GEN21 Bus1=230.1 kV=0.213 kW=0 PF=1
New Generator.GEN22 Bus1=2110.1 kV=0.213 kW=0 PF=1
New Generator.GEN23 Bus1=2118.3 kV=0.213 kW=0 PF=1
New Generator.GEN24 Bus1=2186.3 kV=0.213 kW=0 PF=1
New Generator.GEN25 Bus1=2193.1 kV=0.213 kW=0 PF=1
New Generator.GEN26 Bus1=2254.1 kV=0.213 kW=0 PF=1
New Generator.GEN27 Bus1=2259.3 kV=0.213 kW=0 PF=1
New Generator.GEN28 Bus1=2460.1 kV=0.213 kW=0 PF=1
New Generator.GEN31 Bus1=376.2 kV=0.213 kW=0 PF=1
New Generator.GEN32 Bus1=383.2 kV=0.213 kW=0 PF=1
New Generator.GEN33 Bus1=3103.3 kV=0.213 kW=0 PF=1
New Generator.GEN34 Bus1=3111.2 kV=0.213 kW=0 PF=1
New Generator.GEN35 Bus1=3163.1 kV=0.213 kW=0 PF=1
New Generator.GEN36 Bus1=3173.1 kV=0.213 kW=0 PF=1
New Generator.GEN37 Bus1=3200.3 kV=0.213 kW=0 PF=1
New Generator.GEN38 Bus1=3207.2 kV=0.213 kW=0 PF=1
New Generator.GEN39 Bus1=3258.1 kV=0.213 kW=0 PF=1
New Generator.GEN310 Bus1=3262.3 kV=0.213 kW=0 PF=1
New Generator.GEN311 Bus1=3267.1 kV=0.213 kW=0 PF=1
New Generator.GEN312 Bus1=3273.2 kV=0.213 kW=0 PF=1
New Generator.GEN313 Bus1=3297.2 kV=0.213 kW=0 PF=1
New Generator.GEN314 Bus1=3308.1 kV=0.213 kW=0 PF=1
New Generator.GEN315 Bus1=3309.1 kV=0.213 kW=0 PF=1
New Generator.GEN316 Bus1=3327.1 kV=0.213 kW=0 PF=1
New Generator.GEN317 Bus1=3341.1 kV=0.213 kW=0 PF=1
New Generator.GEN318 Bus1=3346.3 kV=0.213 kW=0 PF=1
New Generator.GEN319 Bus1=3347.3 kV=0.213 kW=0 PF=1
New Generator.GEN320 Bus1=3352.3 kV=0.213 kW=0 PF=1
New Generator.GEN321 Bus1=3353.3 kV=0.213 kW=0 PF=1
New Generator.GEN322 Bus1=3354.2 kV=0.213 kW=0 PF=1
New Generator.GEN323 Bus1=3363.2 kV=0.213 kW=0 PF=1
New Generator.GEN324 Bus1=3364.2 kV=0.213 kW=0 PF=1
New Generator.GEN325 Bus1=3374.1 kV=0.213 kW=0 PF=1
New Generator.GEN326 Bus1=3405.3 kV=0.213 kW=0 PF=1
New Generator.GEN327 Bus1=3445.2 kV=0.213 kW=0 PF=1
New Generator.GEN328 Bus1=3468.2 kV=0.213 kW=0 PF=1
New Generator.GEN329 Bus1=3475.2 kV=0.213 kW=0 PF=1
New Generator.GEN330 Bus1=3511.1 kV=0.213 kW=0 PF=1
New Generator.GEN331 Bus1=3520.2 kV=0.213 kW=0 PF=1
New Generator.GEN332 Bus1=3543.3 kV=0.213 kW=0 PF=1
New Generator.GEN333 Bus1=3544.2 kV=0.213 kW=0 PF=1
New Generator.GEN334 Bus1=3571.2 kV=0.213 kW=0 PF=1
New Generator.GEN335 Bus1=3572.3 kV=0.213 kW=0 PF=1
New Generator.GEN336 Bus1=3607.2 kV=0.213 kW=0 PF=1
New Generator.GEN337 Bus1=3614.2 kV=0.213 kW=0 PF=1
New Generator.GEN338 Bus1=3626.1 kV=0.213 kW=0 PF=1
New Generator.GEN339 Bus1=3638.3 kV=0.213 kW=0 PF=1
New Generator.GEN340 Bus1=3643.2 kV=0.213 kW=0 PF=1
New Generator.GEN341 Bus1=3644.2 kV=0.213 kW=0 PF=1
New Generator.GEN342 Bus1=3651.1 kV=0.213 kW=0 PF=1
New Generator.GEN343 Bus1=3655.1 kV=0.213 kW=0 PF=1
New Generator.GEN344 Bus1=3656.1 kV=0.213 kW=0 PF=1
New Generator.GEN345 Bus1=3734.3 kV=0.213 kW=0 PF=1
New Generator.GEN346 Bus1=3743.2 kV=0.213 kW=0 PF=1
New Generator.GEN347 Bus1=3744.1 kV=0.213 kW=0 PF=1
New Generator.GEN348 Bus1=3753.2 kV=0.213 kW=0 PF=1
New Generator.GEN349 Bus1=3768.1 kV=0.213 kW=0 PF=1
New Generator.GEN350 Bus1=3792.3 kV=0.213 kW=0 PF=1
New Generator.GEN351 Bus1=3793.2 kV=0.213 kW=0 PF=1
New Generator.GEN352 Bus1=3822.1 kV=0.213 kW=0 PF=1
New Generator.GEN353 Bus1=3850.3 kV=0.213 kW=0 PF=1
New Generator.GEN354 Bus1=3858.1 kV=0.213 kW=0 PF=1
New Generator.GEN355 Bus1=3887.3 kV=0.213 kW=0 PF=1
New Generator.GEN356 Bus1=3888.2 kV=0.213 kW=0 PF=1
New Generator.GEN357 Bus1=3923.2 kV=0.213 kW=0 PF=1
New Generator.GEN358 Bus1=3925.1 kV=0.213 kW=0 PF=1
New Generator.GEN359 Bus1=3936.3 kV=0.213 kW=0 PF=1
New Generator.GEN360 Bus1=3953.1 kV=0.213 kW=0 PF=1
New Generator.GEN361 Bus1=3984.2 kV=0.213 kW=0 PF=1
New Generator.GEN362 Bus1=3986.1 kV=0.213 kW=0 PF=1
New Generator.GEN363 Bus1=3989.2 kV=0.213 kW=0 PF=1
New Generator.GEN364 Bus1=3995.1 kV=0.213 kW=0 PF=1
New Generator.GEN365 Bus1=31027.3 kV=0.213 kW=0 PF=1
New Generator.GEN366 Bus1=31037.1 kV=0.213 kW=0 PF=1
New Generator.GEN367 Bus1=31039.2 kV=0.213 kW=0 PF=1
New Generator.GEN368 Bus1=31040.1 kV=0.213 kW=0 PF=1
New Generator.GEN369 Bus1=31062.2 kV=0.213 kW=0 PF=1
New Generator.GEN370 Bus1=31064.3 kV=0.213 kW=0 PF=1
New Generator.GEN371 Bus1=31071.3 kV=0.213 kW=0 PF=1
New Generator.GEN372 Bus1=31083.1 kV=0.213 kW=0 PF=1
New Generator.GEN373 Bus1=31099.3 kV=0.213 kW=0 PF=1
New Generator.GEN374 Bus1=31103.2 kV=0.213 kW=0 PF=1
New Generator.GEN375 Bus1=31122.3 kV=0.213 kW=0 PF=1
New Generator.GEN376 Bus1=31129.2 kV=0.213 kW=0 PF=1
New Generator.GEN377 Bus1=31131.1 kV=0.213 kW=0 PF=1
New Generator.GEN378 Bus1=31133.3 kV=0.213 kW=0 PF=1
New Generator.GEN41 Bus1=4104.3 kV=0.213 kW=0 PF=1
New Generator.GEN42 Bus1=4106.1 kV=0.213 kW=0 PF=1
New Generator.GEN43 Bus1=4114.1 kV=0.213 kW=0 PF=1
New Generator.GEN44 Bus1=4116.2 kV=0.213 kW=0 PF=1
New Generator.GEN45 Bus1=4173.1 kV=0.213 kW=0 PF=1
New Generator.GEN46 Bus1=4194.3 kV=0.213 kW=0 PF=1
New Generator.GEN47 Bus1=4196.1 kV=0.213 kW=0 PF=1
New Generator.GEN48 Bus1=4200.1 kV=0.213 kW=0 PF=1
New Generator.GEN49 Bus1=4215.2 kV=0.213 kW=0 PF=1
New Generator.GEN410 Bus1=4247.3 kV=0.213 kW=0 PF=1
New Generator.GEN411 Bus1=4348.1 kV=0.213 kW=0 PF=1
New Generator.GEN412 Bus1=4366.1 kV=0.213 kW=0 PF=1
New Generator.GEN413 Bus1=4367.1 kV=0.213 kW=0 PF=1
New Generator.GEN414 Bus1=4368.1 kV=0.213 kW=0 PF=1
New Generator.GEN415 Bus1=4369.1 kV=0.213 kW=0 PF=1
New Generator.GEN416 Bus1=4378.2 kV=0.213 kW=0 PF=1
New Generator.GEN417 Bus1=4382.3 kV=0.213 kW=0 PF=1
New Generator.GEN418 Bus1=4383.2 kV=0.213 kW=0 PF=1
New Generator.GEN419 Bus1=4385.1 kV=0.213 kW=0 PF=1
New Generator.GEN420 Bus1=4405.1 kV=0.213 kW=0 PF=1
New Generator.GEN421 Bus1=4410.3 kV=0.213 kW=0 PF=1
New Generator.GEN422 Bus1=4411.3 kV=0.213 kW=0 PF=1
New Generator.GEN423 Bus1=4412.3 kV=0.213 kW=0 PF=1
New Generator.GEN424 Bus1=4413.3 kV=0.213 kW=0 PF=1
New Generator.GEN425 Bus1=4414.3 kV=0.213 kW=0 PF=1
New Generator.GEN426 Bus1=4452.1 kV=0.213 kW=0 PF=1
New Generator.GEN427 Bus1=4461.1 kV=0.213 kW=0 PF=1
New Generator.GEN428 Bus1=4462.1 kV=0.213 kW=0 PF=1
New Generator.GEN429 Bus1=4478.2 kV=0.213 kW=0 PF=1
New Generator.GEN430 Bus1=4497.3 kV=0.213 kW=0 PF=1
New Generator.GEN431 Bus1=4508.3 kV=0.213 kW=0 PF=1
New Generator.GEN432 Bus1=4527.2 kV=0.213 kW=0 PF=1
New Generator.GEN433 Bus1=4560.2 kV=0.213 kW=0 PF=1
New Generator.GEN434 Bus1=4564.3 kV=0.213 kW=0 PF=1
New Generator.GEN435 Bus1=4566.2 kV=0.213 kW=0 PF=1
New Generator.GEN436 Bus1=4567.2 kV=0.213 kW=0 PF=1
New Generator.GEN437 Bus1=4581.2 kV=0.213 kW=0 PF=1
New Generator.GEN438 Bus1=4610.3 kV=0.213 kW=0 PF=1
New Generator.GEN439 Bus1=4632.2 kV=0.213 kW=0 PF=1
New Generator.GEN440 Bus1=4666.1 kV=0.213 kW=0 PF=1
New Generator.GEN441 Bus1=4667.1 kV=0.213 kW=0 PF=1
New Generator.GEN442 Bus1=4684.3 kV=0.213 kW=0 PF=1
New Generator.GEN443 Bus1=4691.1 kV=0.213 kW=0 PF=1
New Generator.GEN444 Bus1=4707.2 kV=0.213 kW=0 PF=1
New Generator.GEN445 Bus1=4741.1 kV=0.213 kW=0 PF=1
New Generator.GEN446 Bus1=4743.2 kV=0.213 kW=0 PF=1
New Generator.GEN447 Bus1=4752.3 kV=0.213 kW=0 PF=1
New Generator.GEN448 Bus1=4771.1 kV=0.213 kW=0 PF=1
New Generator.GEN449 Bus1=4785.2 kV=0.213 kW=0 PF=1
New Generator.GEN450 Bus1=4798.1 kV=0.213 kW=0 PF=1
New Generator.GEN451 Bus1=4815.1 kV=0.213 kW=0 PF=1
New Generator.GEN452 Bus1=4816.2 kV=0.213 kW=0 PF=1
New Generator.GEN453 Bus1=4817.2 kV=0.213 kW=0 PF=1
New Generator.GEN454 Bus1=4829.1 kV=0.213 kW=0 PF=1
New Generator.GEN455 Bus1=4853.2 kV=0.213 kW=0 PF=1
New Generator.GEN456 Bus1=4873.3 kV=0.213 kW=0 PF=1
New Generator.GEN457 Bus1=4878.3 kV=0.213 kW=0 PF=1
New Generator.GEN458 Bus1=4929.1 kV=0.213 kW=0 PF=1
New Generator.GEN459 Bus1=4932.3 kV=0.213 kW=0 PF=1
New Generator.GEN460 Bus1=4933.3 kV=0.213 kW=0 PF=1
New Generator.GEN461 Bus1=4943.1 kV=0.213 kW=0 PF=1
New Generator.GEN462 Bus1=4956.3 kV=0.213 kW=0 PF=1
New Generator.GEN463 Bus1=4957.3 kV=0.213 kW=0 PF=1
New Generator.GEN464 Bus1=4961.1 kV=0.213 kW=0 PF=1
New Generator.GEN465 Bus1=4962.1 kV=0.213 kW=0 PF=1
New Generator.GEN466 Bus1=41000.1 kV=0.213 kW=0 PF=1
New Generator.GEN467 Bus1=41020.1 kV=0.213 kW=0 PF=1
New Generator.GEN468 Bus1=41021.1 kV=0.213 kW=0 PF=1
New Generator.GEN469 Bus1=41024.3 kV=0.213 kW=0 PF=1
New Generator.GEN470 Bus1=41055.1 kV=0.213 kW=0 PF=1
New Generator.GEN471 Bus1=41077.3 kV=0.213 kW=0 PF=1
New Generator.GEN472 Bus1=41090.3 kV=0.213 kW=0 PF=1
New Generator.GEN473 Bus1=41110.2 kV=0.213 kW=0 PF=1
New Generator.GEN474 Bus1=41111.2 kV=0.213 kW=0 PF=1
New Generator.GEN475 Bus1=41140.1 kV=0.213 kW=0 PF=1
New Generator.GEN476 Bus1=41170.1 kV=0.213 kW=0 PF=1
New Generator.GEN477 Bus1=41204.2 kV=0.213 kW=0 PF=1
New Generator.GEN478 Bus1=41206.3 kV=0.213 kW=0 PF=1
New Generator.GEN479 Bus1=41210.3 kV=0.213 kW=0 PF=1
New Generator.GEN480 Bus1=41226.3 kV=0.213 kW=0 PF=1
New Generator.GEN481 Bus1=41238.3 kV=0.213 kW=0 PF=1
New Generator.GEN482 Bus1=41239.3 kV=0.213 kW=0 PF=1
New Generator.GEN483 Bus1=41285.2 kV=0.213 kW=0 PF=1
New Generator.GEN484 Bus1=41292.1 kV=0.213 kW=0 PF=1
New Generator.GEN485 Bus1=41296.3 kV=0.213 kW=0 PF=1
New Generator.GEN486 Bus1=41300.2 kV=0.213 kW=0 PF=1
New Generator.GEN487 Bus1=41331.1 kV=0.213 kW=0 PF=1
New Generator.GEN488 Bus1=41335.3 kV=0.213 kW=0 PF=1
New Generator.GEN489 Bus1=41366.2 kV=0.213 kW=0 PF=1
New Generator.GEN490 Bus1=41372.3 kV=0.213 kW=0 PF=1
New Generator.GEN491 Bus1=41395.1 kV=0.213 kW=0 PF=1
New Generator.GEN492 Bus1=41397.2 kV=0.213 kW=0 PF=1
New Generator.GEN493 Bus1=41408.3 kV=0.213 kW=0 PF=1
New Generator.GEN494 Bus1=41418.2 kV=0.213 kW=0 PF=1
New Generator.GEN495 Bus1=41429.1 kV=0.213 kW=0 PF=1
New Generator.GEN496 Bus1=41438.3 kV=0.213 kW=0 PF=1
New Generator.GEN497 Bus1=41441.3 kV=0.213 kW=0 PF=1
New Generator.GEN498 Bus1=41443.2 kV=0.213 kW=0 PF=1
New Generator.GEN499 Bus1=41465.1 kV=0.213 kW=0 PF=1
New Generator.GEN4100 Bus1=41479.2 kV=0.213 kW=0 PF=1
New Generator.GEN4101 Bus1=41489.1 kV=0.213 kW=0 PF=1
New Generator.GEN4102 Bus1=41491.2 kV=0.213 kW=0 PF=1
New Generator.GEN4103 Bus1=41525.1 kV=0.213 kW=0 PF=1
New Generator.GEN4104 Bus1=41528.2 kV=0.213 kW=0 PF=1
New Generator.GEN4105 Bus1=41531.2 kV=0.213 kW=0 PF=1
New Generator.GEN4106 Bus1=41534.1 kV=0.213 kW=0 PF=1
New Generator.GEN51 Bus1=578.2 kV=0.213 kW=0 PF=1
New Generator.GEN52 Bus1=587.2 kV=0.213 kW=0 PF=1
New Generator.GEN53 Bus1=596.1 kV=0.213 kW=0 PF=1
New Generator.GEN54 Bus1=5112.3 kV=0.213 kW=0 PF=1
New Generator.GEN55 Bus1=5139.1 kV=0.213 kW=0 PF=1
New Generator.GEN56 Bus1=5159.2 kV=0.213 kW=0 PF=1
New Generator.GEN57 Bus1=5174.2 kV=0.213 kW=0 PF=1
New Generator.GEN58 Bus1=5196.3 kV=0.213 kW=0 PF=1
New Generator.GEN59 Bus1=5208.1 kV=0.213 kW=0 PF=1
New Generator.GEN510 Bus1=5230.2 kV=0.213 kW=0 PF=1
New Generator.GEN511 Bus1=5237.3 kV=0.213 kW=0 PF=1
New Generator.GEN512 Bus1=5288.1 kV=0.213 kW=0 PF=1
New Generator.GEN513 Bus1=5316.1 kV=0.213 kW=0 PF=1
New Generator.GEN514 Bus1=5361.2 kV=0.213 kW=0 PF=1
New Generator.GEN515 Bus1=5382.3 kV=0.213 kW=0 PF=1
New Generator.GEN516 Bus1=5384.1 kV=0.213 kW=0 PF=1
New Generator.GEN517 Bus1=5391.3 kV=0.213 kW=0 PF=1
New Generator.GEN518 Bus1=5396.3 kV=0.213 kW=0 PF=1
New Generator.GEN519 Bus1=5401.3 kV=0.213 kW=0 PF=1
New Generator.GEN520 Bus1=5430.3 kV=0.213 kW=0 PF=1
New Generator.GEN521 Bus1=5431.2 kV=0.213 kW=0 PF=1
New Generator.GEN522 Bus1=5465.1 kV=0.213 kW=0 PF=1
New Generator.GEN523 Bus1=5475.3 kV=0.213 kW=0 PF=1
New Generator.GEN524 Bus1=5494.2 kV=0.213 kW=0 PF=1
New Generator.GEN525 Bus1=5500.2 kV=0.213 kW=0 PF=1
New Generator.GEN526 Bus1=5527.1 kV=0.213 kW=0 PF=1
New Generator.GEN527 Bus1=5542.2 kV=0.213 kW=0 PF=1
New Generator.GEN528 Bus1=5562.1 kV=0.213 kW=0 PF=1
New Generator.GEN529 Bus1=5571.2 kV=0.213 kW=0 PF=1
New Generator.GEN530 Bus1=5655.1 kV=0.213 kW=0 PF=1
New Generator.GEN531 Bus1=5657.3 kV=0.213 kW=0 PF=1
New Generator.GEN532 Bus1=5672.2 kV=0.213 kW=0 PF=1
New Generator.GEN533 Bus1=5696.2 kV=0.213 kW=0 PF=1
New Generator.GEN534 Bus1=5733.1 kV=0.213 kW=0 PF=1
New Generator.GEN535 Bus1=5742.3 kV=0.213 kW=0 PF=1
New Generator.GEN536 Bus1=5766.3 kV=0.213 kW=0 PF=1
New Generator.GEN537 Bus1=5802.3 kV=0.213 kW=0 PF=1
New Generator.GEN538 Bus1=5808.1 kV=0.213 kW=0 PF=1
New Generator.GEN539 Bus1=5809.3 kV=0.213 kW=0 PF=1
New Generator.GEN540 Bus1=5825.3 kV=0.213 kW=0 PF=1
New Generator.GEN541 Bus1=5836.1 kV=0.213 kW=0 PF=1
New Generator.GEN542 Bus1=5840.1 kV=0.213 kW=0 PF=1
New Generator.GEN543 Bus1=5860.1 kV=0.213 kW=0 PF=1
New Generator.GEN544 Bus1=5865.3 kV=0.213 kW=0 PF=1
New Generator.GEN545 Bus1=5888.2 kV=0.213 kW=0 PF=1
New Generator.GEN546 Bus1=5925.3 kV=0.213 kW=0 PF=1
New Generator.GEN547 Bus1=5950.1 kV=0.213 kW=0 PF=1
New Generator.GEN548 Bus1=5962.2 kV=0.213 kW=0 PF=1
New Generator.GEN549 Bus1=5979.2 kV=0.213 kW=0 PF=1
New Generator.GEN550 Bus1=51004.1 kV=0.213 kW=0 PF=1
New Generator.GEN551 Bus1=51030.3 kV=0.213 kW=0 PF=1
New Generator.GEN552 Bus1=51056.3 kV=0.213 kW=0 PF=1
New Generator.GEN553 Bus1=51071.2 kV=0.213 kW=0 PF=1
New Generator.GEN554 Bus1=51087.3 kV=0.213 kW=0 PF=1
New Generator.GEN555 Bus1=51111.2 kV=0.213 kW=0 PF=1
New Generator.GEN556 Bus1=51144.1 kV=0.213 kW=0 PF=1
New Generator.GEN557 Bus1=51146.3 kV=0.213 kW=0 PF=1
New Generator.GEN558 Bus1=51168.2 kV=0.213 kW=0 PF=1
New Generator.GEN559 Bus1=51171.1 kV=0.213 kW=0 PF=1
New Generator.GEN560 Bus1=51177.1 kV=0.213 kW=0 PF=1
New Generator.GEN561 Bus1=51183.1 kV=0.213 kW=0 PF=1
New Generator.GEN562 Bus1=51190.2 kV=0.213 kW=0 PF=1
New Generator.GEN563 Bus1=51194.2 kV=0.213 kW=0 PF=1
New Generator.GEN564 Bus1=51218.1 kV=0.213 kW=0 PF=1
New Generator.GEN565 Bus1=51228.2 kV=0.213 kW=0 PF=1
New Generator.GEN566 Bus1=51254.1 kV=0.213 kW=0 PF=1
New Generator.GEN567 Bus1=51256.2 kV=0.213 kW=0 PF=1
New Generator.GEN568 Bus1=51276.1 kV=0.213 kW=0 PF=1
New Generator.GEN569 Bus1=51278.2 kV=0.213 kW=0 PF=1
New Generator.GEN570 Bus1=51284.3 kV=0.213 kW=0 PF=1
New Generator.GEN571 Bus1=51301.2 kV=0.213 kW=0 PF=1
New Generator.GEN572 Bus1=51309.3 kV=0.213 kW=0 PF=1
New Generator.GEN573 Bus1=51367.2 kV=0.213 kW=0 PF=1
New Generator.GEN574 Bus1=51397.1 kV=0.213 kW=0 PF=1
New Generator.GEN575 Bus1=51405.3 kV=0.213 kW=0 PF=1
New Generator.GEN576 Bus1=51425.3 kV=0.213 kW=0 PF=1
New Generator.GEN577 Bus1=51450.2 kV=0.213 kW=0 PF=1
New Generator.GEN578 Bus1=51459.1 kV=0.213 kW=0 PF=1
New Generator.GEN579 Bus1=51471.3 kV=0.213 kW=0 PF=1
New Generator.GEN580 Bus1=51483.3 kV=0.213 kW=0 PF=1
New Generator.GEN581 Bus1=51505.1 kV=0.213 kW=0 PF=1
New Generator.GEN582 Bus1=51517.3 kV=0.213 kW=0 PF=1
New Generator.GEN583 Bus1=51520.1 kV=0.213 kW=0 PF=1
New Generator.GEN584 Bus1=51532.2 kV=0.213 kW=0 PF=1
New Generator.GEN585 Bus1=51575.1 kV=0.213 kW=0 PF=1
New Generator.GEN586 Bus1=51620.3 kV=0.213 kW=0 PF=1
New Generator.GEN587 Bus1=51621.3 kV=0.213 kW=0 PF=1
New Generator.GEN588 Bus1=51628.2 kV=0.213 kW=0 PF=1
New Generator.GEN589 Bus1=51634.3 kV=0.213 kW=0 PF=1
New Generator.GEN590 Bus1=51637.2 kV=0.213 kW=0 PF=1
New Generator.GEN591 Bus1=51669.3 kV=0.213 kW=0 PF=1
New Generator.GEN592 Bus1=51676.1 kV=0.213 kW=0 PF=1
New Generator.GEN593 Bus1=51677.2 kV=0.213 kW=0 PF=1
New Generator.GEN594 Bus1=51685.2 kV=0.213 kW=0 PF=1
New Generator.GEN595 Bus1=51699.3 kV=0.213 kW=0 PF=1
New Generator.GEN596 Bus1=51720.1 kV=0.213 kW=0 PF=1
New Generator.GEN597 Bus1=51742.2 kV=0.213 kW=0 PF=1
New Generator.GEN598 Bus1=51743.3 kV=0.213 kW=0 PF=1
New Generator.GEN599 Bus1=51765.3 kV=0.213 kW=0 PF=1
New Generator.GEN5100 Bus1=51773.2 kV=0.213 kW=0 PF=1
New Generator.GEN5101 Bus1=51811.1 kV=0.213 kW=0 PF=1
New Generator.GEN5102 Bus1=51831.2 kV=0.213 kW=0 PF=1
New Generator.GEN5103 Bus1=51846.3 kV=0.213 kW=0 PF=1
New Generator.GEN5104 Bus1=51854.1 kV=0.213 kW=0 PF=1
New Generator.GEN5105 Bus1=51857.2 kV=0.213 kW=0 PF=1
New Generator.GEN5106 Bus1=51875.1 kV=0.213 kW=0 PF=1
New Generator.GEN5107 Bus1=51879.3 kV=0.213 kW=0 PF=1
New Generator.GEN5108 Bus1=51890.1 kV=0.213 kW=0 PF=1
New Generator.GEN5109 Bus1=51898.1 kV=0.213 kW=0 PF=1
New Generator.GEN5110 Bus1=51914.1 kV=0.213 kW=0 PF=1
New Generator.GEN5111 Bus1=51928.2 kV=0.213 kW=0 PF=1
New Generator.GEN5112 Bus1=51936.1 kV=0.213 kW=0 PF=1
New Generator.GEN5113 Bus1=51958.1 kV=0.213 kW=0 PF=1
New Generator.GEN5114 Bus1=51963.2 kV=0.213 kW=0 PF=1
New Generator.GEN5115 Bus1=52034.3 kV=0.213 kW=0 PF=1
New Generator.GEN5116 Bus1=52124.2 kV=0.213 kW=0 PF=1
New Generator.GEN5117 Bus1=52169.1 kV=0.213 kW=0 PF=1
New Generator.GEN5118 Bus1=52180.3 kV=0.213 kW=0 PF=1
New Generator.GEN5119 Bus1=52232.1 kV=0.213 kW=0 PF=1
New Generator.GEN5120 Bus1=52258.1 kV=0.213 kW=0 PF=1
New Generator.GEN5121 Bus1=52260.2 kV=0.213 kW=0 PF=1
New Generator.GEN5122 Bus1=52289.2 kV=0.213 kW=0 PF=1
New Generator.GEN5123 Bus1=52292.3 kV=0.213 kW=0 PF=1
New Generator.GEN5124 Bus1=52294.1 kV=0.213 kW=0 PF=1
New Generator.GEN5125 Bus1=52295.2 kV=0.213 kW=0 PF=1
New Generator.GEN5126 Bus1=52337.3 kV=0.213 kW=0 PF=1
New Generator.GEN5127 Bus1=52344.1 kV=0.213 kW=0 PF=1
New Generator.GEN5128 Bus1=52349.2 kV=0.213 kW=0 PF=1
New Generator.GEN5129 Bus1=52389.3 kV=0.213 kW=0 PF=1
New Generator.GEN5130 Bus1=52391.2 kV=0.213 kW=0 PF=1
New Generator.GEN5131 Bus1=52394.1 kV=0.213 kW=0 PF=1
New Generator.GEN5132 Bus1=52397.2 kV=0.213 kW=0 PF=1
New Generator.GEN5133 Bus1=52401.3 kV=0.213 kW=0 PF=1
New Generator.GEN5134 Bus1=52436.1 kV=0.213 kW=0 PF=1
New Generator.GEN5135 Bus1=52492.1 kV=0.213 kW=0 PF=1
New Generator.GEN5136 Bus1=52514.2 kV=0.213 kW=0 PF=1
New Generator.GEN5137 Bus1=52541.3 kV=0.213 kW=0 PF=1
New Generator.GEN5138 Bus1=52543.1 kV=0.213 kW=0 PF=1
New Generator.GEN5139 Bus1=52548.1 kV=0.213 kW=0 PF=1
New Generator.GEN5140 Bus1=52551.2 kV=0.213 kW=0 PF=1
New Generator.GEN5141 Bus1=52553.3 kV=0.213 kW=0 PF=1
New Generator.GEN5142 Bus1=52554.1 kV=0.213 kW=0 PF=1
New Generator.GEN5143 Bus1=52570.3 kV=0.213 kW=0 PF=1
New Generator.GEN5144 Bus1=52586.2 kV=0.213 kW=0 PF=1
New Generator.GEN5145 Bus1=52587.3 kV=0.213 kW=0 PF=1
New Generator.GEN5146 Bus1=52600.1 kV=0.213 kW=0 PF=1
New Generator.GEN5147 Bus1=52605.2 kV=0.213 kW=0 PF=1
New Generator.GEN5148 Bus1=52676.1 kV=0.213 kW=0 PF=1
New Generator.GEN5149 Bus1=52691.1 kV=0.213 kW=0 PF=1
New Generator.GEN5150 Bus1=52692.3 kV=0.213 kW=0 PF=1
New Generator.GEN5151 Bus1=52696.3 kV=0.213 kW=0 PF=1
New Generator.GEN5152 Bus1=52715.1 kV=0.213 kW=0 PF=1
New Generator.GEN5153 Bus1=52716.3 kV=0.213 kW=0 PF=1
New Generator.GEN5154 Bus1=52726.2 kV=0.213 kW=0 PF=1
New Generator.GEN5155 Bus1=52735.3 kV=0.213 kW=0 PF=1
New Generator.GEN5156 Bus1=52743.2 kV=0.213 kW=0 PF=1
New Generator.GEN5157 Bus1=52744.3 kV=0.213 kW=0 PF=1
New Generator.GEN5158 Bus1=52749.2 kV=0.213 kW=0 PF=1
New Generator.GEN5159 Bus1=52751.2 kV=0.213 kW=0 PF=1
New Generator.GEN61 Bus1=6124.3 kV=0.213 kW=0 PF=1
New Generator.GEN62 Bus1=6142.2 kV=0.213 kW=0 PF=1
New Generator.GEN63 Bus1=6216.1 kV=0.213 kW=0 PF=1
New Generator.GEN64 Bus1=6220.1 kV=0.213 kW=0 PF=1
New Generator.GEN65 Bus1=6307.3 kV=0.213 kW=0 PF=1
New Generator.GEN66 Bus1=6318.2 kV=0.213 kW=0 PF=1
New Generator.GEN67 Bus1=6345.2 kV=0.213 kW=0 PF=1
New Generator.GEN68 Bus1=6401.3 kV=0.213 kW=0 PF=1
New Generator.GEN69 Bus1=6410.2 kV=0.213 kW=0 PF=1
New Generator.GEN610 Bus1=6440.2 kV=0.213 kW=0 PF=1
New Generator.GEN611 Bus1=6441.2 kV=0.213 kW=0 PF=1
New Generator.GEN612 Bus1=6512.2 kV=0.213 kW=0 PF=1
New Generator.GEN613 Bus1=6575.2 kV=0.213 kW=0 PF=1
New Generator.GEN614 Bus1=6576.2 kV=0.213 kW=0 PF=1
New Generator.GEN615 Bus1=6577.1 kV=0.213 kW=0 PF=1
New Generator.GEN616 Bus1=6579.3 kV=0.213 kW=0 PF=1
New Generator.GEN617 Bus1=6620.2 kV=0.213 kW=0 PF=1
New Generator.GEN618 Bus1=6714.3 kV=0.213 kW=0 PF=1
New Generator.GEN619 Bus1=6728.1 kV=0.213 kW=0 PF=1
New Generator.GEN620 Bus1=6754.3 kV=0.213 kW=0 PF=1
New Generator.GEN621 Bus1=6755.3 kV=0.213 kW=0 PF=1
New Generator.GEN622 Bus1=6776.1 kV=0.213 kW=0 PF=1
New Generator.GEN623 Bus1=6777.1 kV=0.213 kW=0 PF=1
New Generator.GEN624 Bus1=6785.3 kV=0.213 kW=0 PF=1
New Generator.GEN625 Bus1=6786.3 kV=0.213 kW=0 PF=1
New Generator.GEN626 Bus1=6799.1 kV=0.213 kW=0 PF=1
New Generator.GEN627 Bus1=6809.1 kV=0.213 kW=0 PF=1
New Generator.GEN628 Bus1=6810.1 kV=0.213 kW=0 PF=1
New Generator.GEN629 Bus1=6838.2 kV=0.213 kW=0 PF=1
New Generator.GEN630 Bus1=6842.1 kV=0.213 kW=0 PF=1