New Line.LINE42 Bus1=40 Bus2=43 phases=3 Linecode=4c_.2 Length=9.1269 Units=m
New Line.LINE46 Bus1=43 Bus2=47 phases=3 Linecode=4c_.2 Length=6.6063 Units=m
New Line.LINE50 Bus1=47 Bus2=51 phases=3 Linecode=4c_.2 Length=1.7791 Units=m
New Line.LINE54 Bus1=51 Bus2=55 phases=3 Linecode=4c_.2 Length=3.0359 Units=m
New Line.LINE58 Bus1=55 Bus2=59 phases=3 Linecode=4c_.2 Length=1.4394 Units=m
New Line.LINE63 Bus1=59 Bus2=64 phases=3 Linecode=4c_.2 Length=0.032019 Units=m
New Line.LINE68 Bus1=64 Bus2=69 phases=3 Linecode=4c_.2 Length=1.5481 Units=m
New Line.LINE73 Bus1=69 Bus2=74 phases=3 Linecode=4c_.2 Length=1.3067 Units=m
New Line.LINE78 Bus1=74 Bus2=79 phases=3 Linecode=4c_.2 Length=1.1114 Units=m
New Line.LINE83 Bus1=79 Bus2=84 phases=3 Linecode=4c_.2 Length=1.1591 Units=m
New Line.LINE87 Bus1=84 Bus2=88 phases=3 Linecode=4c_.2 Length=1.9774 Units=m
New Line.LINE91 Bus1=88 Bus2=92 phases=3 Linecode=4c_.2 Length=0.21233 Units=m
New Line.LINE94 Bus1=92 Bus2=95 phases=3 Linecode=4c_.2 Length=1.2027 Units=m
New Line.LINE97 Bus1=95 Bus2=98 phases=3 Linecode=4c_185_SAC_XC Length=4.2412 Units=m
New Line.LINE129 Bus1=124 Bus2=130 phases=3 Linecode=25_SAC_PC Length=6.5162 Units=m
New Line.LINE178 Bus1=172 Bus2=179 phases=3 Linecode=25_SAC_PC Length=5.7601 Units=m
New Line.LINE294 Bus1=285 Bus2=295 phases=3 Linecode=2c_.04 Length=2.3149 Units=m
New Line.LINE297 Bus1=287 Bus2=298 phases=3 Linecode=2c_.04 Length=3.8303 Units=m
New Line.LINE328 Bus1=320 Bus2=329 phases=3 Linecode=4c_.2 Length=0.17519 Units=m
New Line.LINE329 Bus1=320 Bus2=330 phases=3 Linecode=4c_.1 Length=0.13619 Units=m
New Line.LINE332 Bus1=322 Bus2=333 phases=3 Linecode=25_SAC_PC Length=6.2125 Units=m
New Line.LINE338 Bus1=329 Bus2=339 phases=3 Linecode=4c_.2 Length=0.68457 Units=m
New Line.LINE339 Bus1=330 Bus2=340 phases=3 Linecode=4c_.1 Length=0.16323 Units=m
New Line.LINE347 Bus1=339 Bus2=348 phases=3 Linecode=4c_.2 Length=0.75624 Units=m
New Line.LINE348 Bus1=340 Bus2=349 phases=3 Linecode=4c_.1 Length=0.10904 Units=m
New Line.LINE356 Bus1=348 Bus2=357 phases=3 Linecode=4c_.2 Length=0.798 Units=m
New Line.LINE357 Bus1=349 Bus2=358 phases=3 Linecode=4c_.1 Length=0.076843 Units=m
New Line.LINE362 Bus1=353 Bus2=363 phases=3 Linecode=2c_.04 Length=2.9253 Units=m
New Line.LINE365 Bus1=357 Bus2=366 phases=3 Linecode=4c_.2 Length=0.48073 Units=m
New Line.LINE366 Bus1=358 Bus2=367 phases=3 Linecode=4c_.1 Length=0.11385 Units=m
New Line.LINE372 Bus1=366 Bus2=373 phases=3 Linecode=4c_.2 Length=1.3119 Units=m
New Line.LINE373 Bus1=367 Bus2=374 phases=3 Linecode=4c_.1 Length=0.13252 Units=m
New Line.LINE378 Bus1=373 Bus2=379 phases=3 Linecode=4c_.2 Length=0.61298 Units=m
New Line.LINE379 Bus1=374 Bus2=380 phases=3 Linecode=4c_.1 Length=0.124 Units=m
New Line.LINE384 Bus1=379 Bus2=385 phases=3 Linecode=4c_.2 Length=0.59367 Units=m
New Line.LINE385 Bus1=380 Bus2=386 phases=3 Linecode=4c_.1 Length=0.14091 Units=m
New Line.LINE390 Bus1=385 Bus2=391 phases=3 Linecode=4c_.2 Length=0.58495 Units=m
New Line.LINE391 Bus1=386 Bus2=392 phases=3 Linecode=4c_.1 Length=0.11314 Units=m
New Line.LINE396 Bus1=391 Bus2=397 phases=3 Linecode=4c_.2 Length=0.55499 Units=m
New Line.LINE397 Bus1=392 Bus2=398 phases=3 Linecode=4c_.1 Length=0.17607 Units=m
New Line.LINE400 Bus1=394 Bus2=401 phases=3 Linecode=25_SAC_PC Length=5.9745 Units=m
New Line.LINE403 Bus1=397 Bus2=404 phases=3 Linecode=4c_.2 Length=0.55469 Units=m
New Line.LINE404 Bus1=398 Bus2=405 phases=3 Linecode=4c_.1 Length=0.21435 Units=m
New Line.LINE408 Bus1=404 Bus2=409 phases=3 Linecode=4c_.2 Length=0.48076 Units=m
New Line.LINE409 Bus1=405 Bus2=410 phases=3 Linecode=4c_.1 Length=0.17489 Units=m
New Line.LINE413 Bus1=409 Bus2=414 phases=3 Linecode=4c_.2 Length=0.47077 Units=m
New Line.LINE414 Bus1=410 Bus2=415 phases=3 Linecode=4c_.1 Length=0.18141 Units=m
New Line.LINE416 Bus1=411 Bus2=417 phases=3 Linecode=25_SAC_PC Length=6.2336 Units=m
New Line.LINE419 Bus1=414 Bus2=420 phases=3 Linecode=4c_.2 Length=0.40834 Units=m
New Line.LINE420 Bus1=415 Bus2=421 phases=3 Linecode=4c_.1 Length=0.21419 Units=m
New Line.LINE424 Bus1=420 Bus2=425 phases=3 Linecode=4c_.2 Length=0.84929 Units=m
New Line.LINE425 Bus1=421 Bus2=426 phases=3 Linecode=4c_.1 Length=0.196 Units=m
New Line.LINE429 Bus1=425 Bus2=430 phases=3 Linecode=4c_.2 Length=0.53666 Units=m
New Line.LINE430 Bus1=426 Bus2=431 phases=3 Linecode=4c_.1 Length=0.24965 Units=m
New Line.LINE434 Bus1=430 Bus2=435 phases=3 Linecode=4c_.2 Length=0.71825 Units=m
New Line.LINE435 Bus1=431 Bus2=436 phases=3 Linecode=4c_.1 Length=0.231 Units=m
New Line.LINE438 Bus1=435 Bus2=439 phases=3 Linecode=4c_.2 Length=0.67272 Units=m
New Line.LINE439 Bus1=436 Bus2=440 phases=3 Linecode=4c_.1 Length=1.1243 Units=m
New Line.LINE442 Bus1=439 Bus2=443 phases=3 Linecode=4c_.2 Length=0.66235 Units=m
New Line.LINE443 Bus1=440 Bus2=444 phases=3 Linecode=4c_.1 Length=0.25428 Units=m
New Line.LINE446 Bus1=443 Bus2=447 phases=3 Linecode=4c_.2 Length=0.52061 Units=m
New Line.LINE447 Bus1=444 Bus2=448 phases=3 Linecode=4c_.1 Length=0.6237 Units=m
New Line.LINE450 Bus1=447 Bus2=451 phases=3 Linecode=4c_.2 Length=0.57166 Units=m
New Line.LINE451 Bus1=448 Bus2=452 phases=3 Linecode=4c_.1 Length=0.36173 Units=m
New Line.LINE454 Bus1=451 Bus2=455 phases=3 Linecode=4c_.2 Length=0.5854 Units=m
New Line.LINE455 Bus1=452 Bus2=456 phases=3 Linecode=4c_.1 Length=0.36109 Units=m
New Line.LINE457 Bus1=455 Bus2=458 phases=3 Linecode=4c_.2 Length=0.40312 Units=m
New Line.LINE458 Bus1=456 Bus2=459 phases=3 Linecode=4c_.1 Length=0.19375 Units=m
New Line.LINE459 Bus1=458 Bus2=460 phases=3 Linecode=4c_.2 Length=0.6504 Units=m
New Line.LINE460 Bus1=459 Bus2=461 phases=3 Linecode=4c_.1 Length=2.0181 Units=m
New Line.LINE461 Bus1=460 Bus2=462 phases=3 Linecode=4c_.2 Length=0.68327 Units=m
New Line.LINE462 Bus1=461 Bus2=463 phases=3 Linecode=4c_.1 Length=3.0676 Units=m
New Line.LINE463 Bus1=462 Bus2=464 phases=3 Linecode=4c_.2 Length=0.60811 Units=m
New Line.LINE464 Bus1=463 Bus2=465 phases=3 Linecode=4c_.1 Length=1.5777 Units=m
New Line.LINE465 Bus1=464 Bus2=466 phases=3 Linecode=4c_.2 Length=0.68327 Units=m
New Line.LINE466 Bus1=465 Bus2=467 phases=3 Linecode=4c_.1 Length=1.9521 Units=m
New Line.LINE467 Bus1=466 Bus2=468 phases=3 Linecode=4c_.2 Length=0.55025 Units=m
New Line.LINE468 Bus1=467 Bus2=469 phases=3 Linecode=4c_.1 Length=3.9052 Units=m
New Line.LINE469 Bus1=468 Bus2=470 phases=3 Linecode=4c_.2 Length=0.61018 Units=m
New Line.LINE470 Bus1=469 Bus2=471 phases=3 Linecode=4c_.1 Length=2.2021 Units=m
New Line.LINE471 Bus1=470 Bus2=472 phases=3 Linecode=4c_.2 Length=0.73674 Units=m
New Line.LINE472 Bus1=471 Bus2=473 phases=3 Linecode=4c_.1 Length=1.7416 Units=m
New Line.LINE473 Bus1=472 Bus2=474 phases=3 Linecode=4c_.2 Length=0.62604 Units=m
New Line.LINE474 Bus1=473 Bus2=475 phases=3 Linecode=4c_.1 Length=2.15 Units=m
New Line.LINE475 Bus1=474 Bus2=476 phases=3 Linecode=4c_.2 Length=0.70646 Units=m
New Line.LINE476 Bus1=475 Bus2=477 phases=3 Linecode=4c_.1 Length=1.8701 Units=m
New Line.LINE477 Bus1=476 Bus2=478 phases=3 Linecode=4c_.2 Length=0.9477 Units=m
New Line.LINE478 Bus1=477 Bus2=479 phases=3 Linecode=4c_.1 Length=0.85647 Units=m
New Line.LINE479 Bus1=478 Bus2=480 phases=3 Linecode=4c_.2 Length=0.76464 Units=m
New Line.LINE480 Bus1=479 Bus2=481 phases=3 Linecode=4c_.1 Length=1.0271 Units=m
New Line.LINE481 Bus1=480 Bus2=482 phases=3 Linecode=4c_.2 Length=0.61365 Units=m
New Line.LINE482 Bus1=481 Bus2=483 phases=3 Linecode=4c_.1 Length=1.0104 Units=m
New Line.LINE483 Bus1=482 Bus2=484 phases=3 Linecode=4c_.2 Length=0.69623 Units=m
New Line.LINE484 Bus1=483 Bus2=485 phases=3 Linecode=4c_.1 Length=1.1159 Units=m
New Line.LINE485 Bus1=484 Bus2=486 phases=3 Linecode=4c_.2 Length=1.5783 Units=m
New Line.LINE486 Bus1=485 Bus2=487 phases=3 Linecode=4c_.1 Length=1.1547 Units=m
New Line.LINE487 Bus1=486 Bus2=488 phases=3 Linecode=4c_.2 Length=0.62768 Units=m
New Line.LINE488 Bus1=487 Bus2=489 phases=3 Linecode=4c_.1 Length=1.6803 Units=m
New Line.LINE489 Bus1=488 Bus2=490 phases=3 Linecode=4c_.2 Length=0.88243 Units=m
New Line.LINE491 Bus1=489 Bus2=492 phases=3 Linecode=4c_.1 Length=6.8987 Units=m
New Line.LINE492 Bus1=490 Bus2=493 phases=3 Linecode=4c_.2 Length=0.74078 Units=m
New Line.LINE494 Bus1=492 Bus2=495 phases=3 Linecode=4c_.06_UA Length=7.9883 Units=m
New Line.LINE495 Bus1=493 Bus2=496 phases=3 Linecode=4c_.2 Length=1.5032 Units=m
New Line.LINE499 Bus1=496 Bus2=500 phases=3 Linecode=4c_.2 Length=2.8476 Units=m
New Line.LINE503 Bus1=500 Bus2=504 phases=3 Linecode=4c_.2 Length=2.9712 Units=m
New Line.LINE507 Bus1=504 Bus2=508 phases=3 Linecode=4c_.1 Length=1.8352 Units=m
New Line.LINE533 Bus1=528 Bus2=534 phases=3 Linecode=4c_.06_UA Length=5.0081 Units=m
New Line.LINE540 Bus1=534 Bus2=541 phases=3 Linecode=4c_.06_UA Length=0.41897 Units=m
New Line.LINE548 Bus1=541 Bus2=549 phases=3 Linecode=4c_.06_UA Length=4.2827 Units=m
New Line.LINE556 Bus1=549 Bus2=557 phases=3 Linecode=4c_.06_UA Length=3.7557 Units=m
New Line.LINE563 Bus1=557 Bus2=564 phases=3 Linecode=4c_.06_UA Length=5.6029 Units=m
New Line.LINE565 Bus1=558 Bus2=566 phases=3 Linecode=2c_.04 Length=4.7784 Units=m
New Line.LINE568 Bus1=560 Bus2=569 phases=3 Linecode=4c_.1 Length=3.1135 Units=m
New Line.LINE573 Bus1=564 Bus2=574 phases=3 Linecode=4c_.06_UA Length=7.1918 Units=m
New Line.LINE577 Bus1=569 Bus2=578 phases=3 Linecode=4c_.1 Length=5.0234 Units=m
New Line.LINE582 Bus1=574 Bus2=583 phases=3 Linecode=35_SAC_PC Length=6.1494 Units=m
New Line.LINE586 Bus1=578 Bus2=587 phases=3 Linecode=4c_.1 Length=3.5139 Units=m
New Line.LINE592 Bus1=583 Bus2=593 phases=3 Linecode=35_SAC_PC Length=1.5539 Units=m
New Line.LINE596 Bus1=587 Bus2=597 phases=3 Linecode=4c_.1 Length=1.1901 Units=m
New Line.LINE602 Bus1=593 Bus2=603 phases=3 Linecode=35_SAC_PC Length=1.4521 Units=m
New Line.LINE605 Bus1=597 Bus2=606 phases=3 Linecode=4c_.1 Length=0.89 Units=m
New Line.LINE611 Bus1=603 Bus2=612 phases=3 Linecode=35_SAC_PC Length=0.69513 Units=m
New Line.LINE613 Bus1=604 Bus2=614 phases=3 Linecode=2c_.04 Length=4.0267 Units=m
New Line.LINE615 Bus1=606 Bus2=616 phases=3 Linecode=4c_.1 Length=0.77302 Units=m
New Line.LINE622 Bus1=612 Bus2=623 phases=3 Linecode=35_SAC_PC Length=1.5956 Units=m
New Line.LINE625 Bus1=616 Bus2=626 phases=3 Linecode=4c_.1 Length=0.53235 Units=m
New Line.LINE629 Bus1=619 Bus2=630 phases=3 Linecode=3c_.06_UA Length=4.2473 Units=m
New Line.LINE633 Bus1=623 Bus2=634 phases=3 Linecode=35_SAC_PC Length=0.92034 Units=m
New Line.LINE635 Bus1=626 Bus2=636 phases=3 Linecode=4c_.1 Length=0.64103 Units=m
New Line.LINE642 Bus1=634 Bus2=643 phases=3 Linecode=35_SAC_PC Length=0.21418 Units=m
New Line.LINE644 Bus1=636 Bus2=645 phases=3 Linecode=4c_.1 Length=0.3462 Units=m
New Line.LINE647 Bus1=638 Bus2=648 phases=3 Linecode=3c_.06_UA Length=2.5558 Units=m
New Line.LINE652 Bus1=643 Bus2=653 phases=3 Linecode=35_SAC_PC Length=0.22165 Units=m
New Line.LINE654 Bus1=645 Bus2=655 phases=3 Linecode=4c_.1 Length=0.4 Units=m
New Line.LINE661 Bus1=653 Bus2=662 phases=3 Linecode=35_SAC_PC Length=0.41764 Units=m
New Line.LINE663 Bus1=655 Bus2=664 phases=3 Linecode=4c_.1 Length=0.45156 Units=m
New Line.LINE670 Bus1=662 Bus2=671 phases=3 Linecode=35_SAC_PC Length=0.36428 Units=m
New Line.LINE672 Bus1=664 Bus2=673 phases=3 Linecode=4c_.1 Length=0.35726 Units=m
New Line.LINE679 Bus1=671 Bus2=680 phases=3 Linecode=35_SAC_PC Length=0.23844 Units=m
New Line.LINE681 Bus1=673 Bus2=682 phases=3 Linecode=4c_.1 Length=0.43323 Units=m
New Line.LINE686 Bus1=677 Bus2=687 phases=3 Linecode=2c_.0225 Length=2.3434 Units=m
New Line.LINE688 Bus1=680 Bus2=689 phases=3 Linecode=35_SAC_PC Length=0.26986 Units=m
New Line.LINE690 Bus1=681 Bus2=691 phases=3 Linecode=2c_.04 Length=2.4379 Units=m
New Line.LINE691 Bus1=682 Bus2=692 phases=3 Linecode=4c_.1 Length=0.68433 Units=m
New Line.LINE697 Bus1=689 Bus2=698 phases=3 Linecode=35_SAC_PC Length=0.17777 Units=m
New Line.LINE699 Bus1=692 Bus2=700 phases=3 Linecode=4c_.1 Length=4.0502 Units=m
New Line.LINE704 Bus1=698 Bus2=705 phases=3 Linecode=35_SAC_PC Length=0.20136 Units=m
New Line.LINE706 Bus1=700 Bus2=707 phases=3 Linecode=4c_.1 Length=1.2047 Units=m
New Line.LINE711 Bus1=705 Bus2=712 phases=3 Linecode=35_SAC_PC Length=0.28385 Units=m
New Line.LINE714 Bus1=707 Bus2=715 phases=3 Linecode=3c_185_SAC_XC Length=0.5257 Units=m
New Line.LINE719 Bus1=712 Bus2=720 phases=3 Linecode=35_SAC_PC Length=0.18687 Units=m
New Line.LINE721 Bus1=715 Bus2=722 phases=3 Linecode=3c_185_SAC_XC Length=0.71774 Units=m
New Line.LINE726 Bus1=720 Bus2=727 phases=3 Linecode=35_SAC_PC Length=0.25875 Units=m
New Line.LINE728 Bus1=722 Bus2=729 phases=3 Linecode=3c_185_SAC_XC Length=0.12235 Units=m
New Line.LINE733 Bus1=727 Bus2=734 phases=3 Linecode=35_SAC_PC Length=0.25691 Units=m
New Line.LINE735 Bus1=729 Bus2=736 phases=3 Linecode=3c_185_SAC_XC Length=0.17557 Units=m
New Line.LINE740 Bus1=734 Bus2=741 phases=3 Linecode=35_SAC_PC Length=0.20713 Units=m
New Line.LINE742 Bus1=736 Bus2=743 phases=3 Linecode=3c_185_SAC_XC Length=0.22767 Units=m
New Line.LINE747 Bus1=741 Bus2=748 phases=3 Linecode=35_SAC_PC Length=0.25826 Units=m
New Line.LINE748 Bus1=743 Bus2=749 phases=3 Linecode=3c_185_SAC_XC Length=0.22208 Units=m
New Line.LINE753 Bus1=748 Bus2=754 phases=3 Linecode=35_SAC_PC Length=0.33834 Units=m
New Line.LINE754 Bus1=749 Bus2=755 phases=3 Linecode=3c_185_SAC_XC Length=0.21381 Units=m
New Line.LINE759 Bus1=754 Bus2=760 phases=3 Linecode=35_SAC_PC Length=0.33204 Units=m
New Line.LINE760 Bus1=755 Bus2=761 phases=3 Linecode=3c_185_SAC_XC Length=0.21646 Units=m
New Line.LINE765 Bus1=760 Bus2=766 phases=3 Linecode=35_SAC_PC Length=0.23664 Units=m
New Line.LINE766 Bus1=761 Bus2=767 phases=3 Linecode=3c_185_SAC_XC Length=0.18466 Units=m
New Line.LINE770 Bus1=766 Bus2=771 phases=3 Linecode=35_SAC_PC Length=0.20243 Units=m
New Line.LINE771 Bus1=767 Bus2=772 phases=3 Linecode=3c_185_SAC_XC Length=0.17133 Units=m
New Line.LINE775 Bus1=771 Bus2=776 phases=3 Linecode=35_SAC_PC Length=0.26716 Units=m
New Line.LINE776 Bus1=772 Bus2=777 phases=3 Linecode=3c_185_SAC_XC Length=0.17524 Units=m
New Line.LINE780 Bus1=776 Bus2=781 phases=3 Linecode=35_SAC_PC Length=0.18006 Units=m
New Line.LINE781 Bus1=777 Bus2=782 phases=3 Linecode=3c_185_SAC_XC Length=0.1115 Units=m
New Line.LINE784 Bus1=781 Bus2=785 phases=3 Linecode=35_SAC_PC Length=0.16161 Units=m
New Line.LINE785 Bus1=782 Bus2=786 phases=3 Linecode=3c_185_SAC_XC Length=0.13909 Units=m
New Line.LINE788 Bus1=785 Bus2=789 phases=3 Linecode=35_SAC_PC Length=0.096747 Units=m
New Line.LINE789 Bus1=786 Bus2=790 phases=3 Linecode=3c_185_SAC_XC Length=0.23795 Units=m
New Line.LINE792 Bus1=789 Bus2=793 phases=3 Linecode=35_SAC_PC Length=0.23696 Units=m
New Line.LINE793 Bus1=790 Bus2=794 phases=3 Linecode=3c_185_SAC_XC Length=3.0631 Units=m
New Line.LINE796 Bus1=793 Bus2=797 phases=3 Linecode=35_SAC_PC Length=2.4914 Units=m
New Line.LINE797 Bus1=794 Bus2=798 phases=3 Linecode=3c_185_SAC_XC Length=0.18427 Units=m
New Line.LINE800 Bus1=797 Bus2=801 phases=3 Linecode=35_SAC_PC Length=0.94226 Units=m
New Line.LINE801 Bus1=798 Bus2=802 phases=3 Linecode=3c_185_SAC_XC Length=0.19424 Units=m
New Line.LINE804 Bus1=802 Bus2=805 phases=3 Linecode=3c_185_SAC_XC Length=0.32585 Units=m
New Line.LINE807 Bus1=805 Bus2=808 phases=3 Linecode=3c_185_SAC_XC Length=0.25378 Units=m
New Line.LINE810 Bus1=808 Bus2=811 phases=3 Linecode=3c_185_SAC_XC Length=0.18829 Units=m
New Line.LINE813 Bus1=811 Bus2=814 phases=3 Linecode=3c_185_SAC_XC Length=0.24221 Units=m
New Line.LINE816 Bus1=814 Bus2=817 phases=3 Linecode=3c_185_SAC_XC Length=0.18007 Units=m
New Line.LINE819 Bus1=817 Bus2=820 phases=3 Linecode=3c_185_SAC_XC Length=0.2879 Units=m
New Line.LINE823 Bus1=820 Bus2=824 phases=3 Linecode=3c_185_SAC_XC Length=0.24809 Units=m
New Line.LINE827 Bus1=824 Bus2=828 phases=3 Linecode=3c_185_SAC_XC Length=0.20756 Units=m
New Line.LINE831 Bus1=828 Bus2=832 phases=3 Linecode=3c_185_SAC_XC Length=0.18634 Units=m
New Line.LINE835 Bus1=832 Bus2=836 phases=3 Linecode=3c_185_SAC_XC Length=0.45327 Units=m
New Line.LINE839 Bus1=836 Bus2=840 phases=3 Linecode=3c_185_SAC_XC Length=7.9542 Units=m
New Line.LINE843 Bus1=840 Bus2=844 phases=3 Linecode=3c_185_SAC_XC Length=0.15925 Units=m
New Line.LINE847 Bus1=844 Bus2=848 phases=3 Linecode=3c_185_SAC_XC Length=0.14673 Units=m
New Line.LINE851 Bus1=848 Bus2=852 phases=3 Linecode=3c_185_SAC_XC Length=0.1549 Units=m
New Line.LINE854 Bus1=852 Bus2=855 phases=3 Linecode=3c_185_SAC_XC Length=0.12088 Units=m
New Line.LINE857 Bus1=855 Bus2=858 phases=3 Linecode=3c_185_SAC_XC Length=0.12245 Units=m
New Line.LINE860 Bus1=858 Bus2=861 phases=3 Linecode=3c_185_SAC_XC Length=0.12265 Units=m
New Line.LINE863 Bus1=861 Bus2=864 phases=3 Linecode=3c_185_SAC_XC Length=0.094556 Units=m
New Line.LINE866 Bus1=864 Bus2=867 phases=3 Linecode=3c_185_SAC_XC Length=8.552 Units=m
New Line.LINE870 Bus1=867 Bus2=871 phases=3 Linecode=3c_185_SAC_XC Length=4.4514 Units=m
New Line.LINE874 Bus1=871 Bus2=875 phases=3 Linecode=3c_185_SAC_XC Length=12.9514 Units=m
New Line.LINE877 Bus1=873 Bus2=878 phases=3 Linecode=25_SAC_PC Length=2.3909 Units=m
New Line.LINE879 Bus1=875 Bus2=880 phases=3 Linecode=3c_185_SAC_XC Length=8.2398 Units=m
New Line.LINE883 Bus1=880 Bus2=884 phases=3 Linecode=3c_185_SAC_XC Length=3.6978 Units=m
New Line.LINE887 Bus1=884 Bus2=888 phases=3 Linecode=3c_185_SAC_XC Length=3.7719 Units=m
New Line.LINE891 Bus1=888 Bus2=892 phases=3 Linecode=3c_185_SAC_XC Length=12.5189 Units=m
New Line.LINE896 Bus1=892 Bus2=897 phases=3 Linecode=3c_185_SAC_XC Length=12.3965 Units=m
New Line.LINE905 Bus1=897 Bus2=906 phases=3 Linecode=3c_185_SAC_XC Length=6.0147 Units=m
New Line.LINE912 Bus1=906 Bus2=913 phases=3 Linecode=25_SAC_XC Length=10.6374 Units=m
New Line.LINE951 Bus1=944 Bus2=952 phases=3 Linecode=25_SAC_PC Length=2.0517 Units=m
New Line.LINE1014 Bus1=1008 Bus2=1015 phases=3 Linecode=3c_185_SAC_XC Length=21.16 Units=m
New Line.LINE1130 Bus1=1122 Bus2=1131 phases=3 Linecode=35_SAC_XC Length=4.5377 Units=m
New Line.LINE1180 Bus1=1175 Bus2=1181 phases=3 Linecode=35_SAC_XC Length=5.7459 Units=m
New Line.LINE1181 Bus1=1175 Bus2=1182 phases=3 Linecode=35_SAC_XC Length=4.9602 Units=m
New Line.LINECmpd_0 Bus1=411 Bus2=453 phases=3 Linecode=25_SAC_PC Length=14.22858 Units=m
New Line.LINECmpd_1 Bus1=1008 Bus2=1175 phases=3 Linecode=35_SAC_XC Length=8.127173 Units=m
New Line.LINECmpd_2 Bus1=40 Bus2=124 phases=3 Linecode=25_SAC_PC Length=13.53876 Units=m
New Line.LINECmpd_3 Bus1=183 Bus2=353 phases=3 Linecode=2c_.04 Length=14.53824 Units=m
New Line.LINECmpd_4 Bus1=528 Bus2=677 phases=3 Linecode=25_SAC_PC Length=20.91847 Units=m
New Line.LINECmpd_5 Bus1=165 Bus2=285 phases=3 Linecode=2c_.04 Length=15.00561 Units=m
New Line.LINECmpd_6 Bus1=1077 Bus2=1203 phases=3 Linecode=35_SAC_XC Length=9.60901 Units=m
New Line.LINECmpd_7 Bus1=980 Bus2=1008 phases=3 Linecode=3c_185_SAC_XC Length=22.4063 Units=m
New Line.LINECmpd_8 Bus1=98 Bus2=411 phases=3 Linecode=25_SAC_PC Length=15.67184 Units=m
New Line.LINECmpd_9 Bus1=980 Bus2=1077 phases=3 Linecode=3c_185_SAC_XC Length=34.93344 Units=m
New Line.LINECmpd_10 Bus1=1008 Bus2=1122 phases=3 Linecode=35_SAC_XC Length=5.761215 Units=m
New Line.LINECmpd_11 Bus1=521 Bus2=545 phases=3 Linecode=4c_.1 Length=26.4808 Units=m
New Line.LINECmpd_12 Bus1=534 Bus2=818 phases=3 Linecode=25_SAC_PC Length=31.482941 Units=m
New Line.LINECmpd_13 Bus1=1077 Bus2=1191 phases=3 Linecode=35_SAC_XC Length=4.976503 Units=m
New Line.LINECmpd_14 Bus1=98 Bus2=322 phases=3 Linecode=25_SAC_PC Length=10.638188 Units=m
New Line.LINECmpd_15 Bus1=222 Bus2=372 phases=3 Linecode=2c_.0225 Length=19.06467 Units=m
New Line.LINECmpd_16 Bus1=183 Bus2=207 phases=3 Linecode=4c_.2 Length=27.1036 Units=m
New Line.LINECmpd_17 Bus1=638 Bus2=778 phases=3 Linecode=2c_.0225 Length=10.5741 Units=m
New Line.LINECmpd_18 Bus1=906 Bus2=980 phases=3 Linecode=3c_185_SAC_XC Length=15.5571 Units=m
New Line.LINECmpd_19 Bus1=944 Bus2=1118 phases=3 Linecode=25_SAC_PC Length=14.645898 Units=m
New Line.LINECmpd_20 Bus1=1077 Bus2=1198 phases=3 Linecode=35_SAC_XC Length=12.911103 Units=m
New Line.LINECmpd_21 Bus1=818 Bus2=873 phases=3 Linecode=25_SAC_PC Length=5.736454 Units=m
New Line.LINECmpd_22 Bus1=1015 Bus2=1173 phases=3 Linecode=35_SAC_XC Length=9.798828 Units=m
New Line.LINECmpd_23 Bus1=980 Bus2=1041 phases=3 Linecode=35_SAC_XC Length=10.09786 Units=m
New Line.LINECmpd_24 Bus1=1077 Bus2=1205 phases=3 Linecode=35_SAC_XC Length=18.964901 Units=m
New Line.LINECmpd_25 Bus1=797 Bus2=851 phases=3 Linecode=35_SAC_PC Length=15.593 Units=m
New Line.LINECmpd_26 Bus1=495 Bus2=579 phases=3 Linecode=2c_.0225 Length=9.536963 Units=m
New Line.LINECmpd_27 Bus1=495 Bus2=528 phases=3 Linecode=4c_.06_UA Length=6.71538 Units=m
New Line.LINECmpd_28 Bus1=118 Bus2=165 phases=3 Linecode=4c_.2 Length=22.31802 Units=m
New Line.LINECmpd_29 Bus1=118 Bus2=163 phases=3 Linecode=2c_.0225 Length=18.694524 Units=m
New Line.LINECmpd_30 Bus1=579 Bus2=638 phases=3 Linecode=2c_.0225 Length=25.06246 Units=m
New Line.LINECmpd_31 Bus1=677 Bus2=795 phases=3 Linecode=25_SAC_PC Length=12.65522 Units=m
New Line.LINECmpd_32 Bus1=560 Bus2=681 phases=3 Linecode=2c_.04 Length=13.17286 Units=m
New Line.LINECmpd_33 Bus1=818 Bus2=944 phases=3 Linecode=25_SAC_PC Length=15.885668 Units=m
New Line.LINECmpd_34 Bus1=897 Bus2=1021 phases=3 Linecode=35_SAC_XC Length=12.107744 Units=m
New Line.LINECmpd_35 Bus1=619 Bus2=695 phases=3 Linecode=3c_.06_UA Length=13.52322 Units=m
New Line.LINECmpd_36 Bus1=1 Bus2=40 phases=3 Linecode=4c_.2 Length=24.333598 Units=m
New Line.LINECmpd_37 Bus1=545 Bus2=604 phases=3 Linecode=2c_.04 Length=12.66109 Units=m
New Line.LINECmpd_38 Bus1=604 Bus2=624 phases=3 Linecode=2c_.04 Length=11.896 Units=m
New Line.LINECmpd_39 Bus1=521 Bus2=558 phases=3 Linecode=2c_.04 Length=13.91128 Units=m
New Line.LINECmpd_40 Bus1=124 Bus2=172 phases=3 Linecode=25_SAC_PC Length=8.31246 Units=m
New Line.LINECmpd_41 Bus1=287 Bus2=403 phases=3 Linecode=2c_.0225 Length=11.88676 Units=m
New Line.LINECmpd_42 Bus1=207 Bus2=287 phases=3 Linecode=2c_.0225 Length=13.58171 Units=m
New Line.LINECmpd_43 Bus1=285 Bus2=361 phases=3 Linecode=2c_.04 Length=14.51223 Units=m
New Line.LINECmpd_44 Bus1=98 Bus2=118 phases=3 Linecode=4c_.2 Length=20.25056 Units=m
New Line.LINECmpd_45 Bus1=897 Bus2=978 phases=3 Linecode=35_SAC_XC Length=9.30289 Units=m
New Line.LINECmpd_46 Bus1=394 Bus2=457 phases=3 Linecode=25_SAC_PC Length=15.40522 Units=m
New Line.LINECmpd_47 Bus1=172 Bus2=273 phases=3 Linecode=25_SAC_PC Length=14.5064 Units=m
New Line.LINECmpd_48 Bus1=897 Bus2=1057 phases=3 Linecode=35_SAC_XC Length=14.49193 Units=m
New Line.LINECmpd_49 Bus1=1015 Bus2=1180 phases=3 Linecode=35_SAC_XC Length=18.385949 Units=m
New Line.LINECmpd_50 Bus1=353 Bus2=434 phases=3 Linecode=2c_.04 Length=15.9836 Units=m
New Line.LINECmpd_51 Bus1=558 Bus2=575 phases=3 Linecode=2c_.04 Length=9.8063 Units=m
New Line.LINECmpd_52 Bus1=873 Bus2=989 phases=3 Linecode=25_SAC_PC Length=12.05924 Units=m
New Line.LINECmpd_53 Bus1=508 Bus2=542 phases=3 Linecode=2c_.0225 Length=17.56829 Units=m
New Line.LINECmpd_54 Bus1=322 Bus2=394 phases=3 Linecode=25_SAC_PC Length=8.33374 Units=m
New Line.LINECmpd_55 Bus1=579 Bus2=619 phases=3 Linecode=3c_.06_UA Length=6.8909 Units=m
New Line.LINECmpd_56 Bus1=681 Bus2=713 phases=3 Linecode=2c_.04 Length=6.62685 Units=m
New Line.LINECmpd_57 Bus1=222 Bus2=320 phases=3 Linecode=4c_.2 Length=16.54675 Units=m
New Line.LINECmpd_58 Bus1=207 Bus2=222 phases=3 Linecode=4c_.2 Length=19.0306 Units=m
New Line.LINECmpd_59 Bus1=508 Bus2=521 phases=3 Linecode=4c_.1 Length=17.81463 Units=m
New Line.LINECmpd_60 Bus1=165 Bus2=183 phases=3 Linecode=4c_.2 Length=19.2241 Units=m
New Line.LINECmpd_61 Bus1=545 Bus2=560 phases=3 Linecode=4c_.1 Length=15.4327 Units=m
