New Line.LINE189_42 Bus1=189_40 Bus2=189_43 phases=3 Linecode=4c_.2 Length=9.1269 Units=m
New Line.LINE189_46 Bus1=189_43 Bus2=189_47 phases=3 Linecode=4c_.2 Length=6.6063 Units=m
New Line.LINE189_50 Bus1=189_47 Bus2=189_51 phases=3 Linecode=4c_.2 Length=1.7791 Units=m
New Line.LINE189_54 Bus1=189_51 Bus2=189_55 phases=3 Linecode=4c_.2 Length=3.0359 Units=m
New Line.LINE189_58 Bus1=189_55 Bus2=189_59 phases=3 Linecode=4c_.2 Length=1.4394 Units=m
New Line.LINE189_63 Bus1=189_59 Bus2=189_64 phases=3 Linecode=4c_.2 Length=0.032019 Units=m
New Line.LINE189_68 Bus1=189_64 Bus2=189_69 phases=3 Linecode=4c_.2 Length=1.5481 Units=m
New Line.LINE189_73 Bus1=189_69 Bus2=189_74 phases=3 Linecode=4c_.2 Length=1.3067 Units=m
New Line.LINE189_78 Bus1=189_74 Bus2=189_79 phases=3 Linecode=4c_.2 Length=1.1114 Units=m
New Line.LINE189_83 Bus1=189_79 Bus2=189_84 phases=3 Linecode=4c_.2 Length=1.1591 Units=m
New Line.LINE189_87 Bus1=189_84 Bus2=189_88 phases=3 Linecode=4c_.2 Length=1.9774 Units=m
New Line.LINE189_91 Bus1=189_88 Bus2=189_92 phases=3 Linecode=4c_.2 Length=0.21233 Units=m
New Line.LINE189_94 Bus1=189_92 Bus2=189_95 phases=3 Linecode=4c_.2 Length=1.2027 Units=m
New Line.LINE189_97 Bus1=189_95 Bus2=189_98 phases=3 Linecode=4c_185_SAC_XC Length=4.2412 Units=m
New Line.LINE189_129 Bus1=189_124 Bus2=189_130 phases=3 Linecode=25_SAC_PC Length=6.5162 Units=m
New Line.LINE189_178 Bus1=189_172 Bus2=189_179 phases=3 Linecode=25_SAC_PC Length=5.7601 Units=m
New Line.LINE189_294 Bus1=189_285 Bus2=189_295 phases=3 Linecode=2c_.04 Length=2.3149 Units=m
New Line.LINE189_297 Bus1=189_287 Bus2=189_298 phases=3 Linecode=2c_.04 Length=3.8303 Units=m
New Line.LINE189_328 Bus1=189_320 Bus2=189_329 phases=3 Linecode=4c_.2 Length=0.17519 Units=m
New Line.LINE189_329 Bus1=189_320 Bus2=189_330 phases=3 Linecode=4c_.1 Length=0.13619 Units=m
New Line.LINE189_332 Bus1=189_322 Bus2=189_333 phases=3 Linecode=25_SAC_PC Length=6.2125 Units=m
New Line.LINE189_338 Bus1=189_329 Bus2=189_339 phases=3 Linecode=4c_.2 Length=0.68457 Units=m
New Line.LINE189_339 Bus1=189_330 Bus2=189_340 phases=3 Linecode=4c_.1 Length=0.16323 Units=m
New Line.LINE189_347 Bus1=189_339 Bus2=189_348 phases=3 Linecode=4c_.2 Length=0.75624 Units=m
New Line.LINE189_348 Bus1=189_340 Bus2=189_349 phases=3 Linecode=4c_.1 Length=0.10904 Units=m
New Line.LINE189_356 Bus1=189_348 Bus2=189_357 phases=3 Linecode=4c_.2 Length=0.798 Units=m
New Line.LINE189_357 Bus1=189_349 Bus2=189_358 phases=3 Linecode=4c_.1 Length=0.076843 Units=m
New Line.LINE189_362 Bus1=189_353 Bus2=189_363 phases=3 Linecode=2c_.04 Length=2.9253 Units=m
New Line.LINE189_365 Bus1=189_357 Bus2=189_366 phases=3 Linecode=4c_.2 Length=0.48073 Units=m
New Line.LINE189_366 Bus1=189_358 Bus2=189_367 phases=3 Linecode=4c_.1 Length=0.11385 Units=m
New Line.LINE189_372 Bus1=189_366 Bus2=189_373 phases=3 Linecode=4c_.2 Length=1.3119 Units=m
New Line.LINE189_373 Bus1=189_367 Bus2=189_374 phases=3 Linecode=4c_.1 Length=0.13252 Units=m
New Line.LINE189_378 Bus1=189_373 Bus2=189_379 phases=3 Linecode=4c_.2 Length=0.61298 Units=m
New Line.LINE189_379 Bus1=189_374 Bus2=189_380 phases=3 Linecode=4c_.1 Length=0.124 Units=m
New Line.LINE189_384 Bus1=189_379 Bus2=189_385 phases=3 Linecode=4c_.2 Length=0.59367 Units=m
New Line.LINE189_385 Bus1=189_380 Bus2=189_386 phases=3 Linecode=4c_.1 Length=0.14091 Units=m
New Line.LINE189_390 Bus1=189_385 Bus2=189_391 phases=3 Linecode=4c_.2 Length=0.58495 Units=m
New Line.LINE189_391 Bus1=189_386 Bus2=189_392 phases=3 Linecode=4c_.1 Length=0.11314 Units=m
New Line.LINE189_396 Bus1=189_391 Bus2=189_397 phases=3 Linecode=4c_.2 Length=0.55499 Units=m
New Line.LINE189_397 Bus1=189_392 Bus2=189_398 phases=3 Linecode=4c_.1 Length=0.17607 Units=m
New Line.LINE189_400 Bus1=189_394 Bus2=189_401 phases=3 Linecode=25_SAC_PC Length=5.9745 Units=m
New Line.LINE189_403 Bus1=189_397 Bus2=189_404 phases=3 Linecode=4c_.2 Length=0.55469 Units=m
New Line.LINE189_404 Bus1=189_398 Bus2=189_405 phases=3 Linecode=4c_.1 Length=0.21435 Units=m
New Line.LINE189_408 Bus1=189_404 Bus2=189_409 phases=3 Linecode=4c_.2 Length=0.48076 Units=m
New Line.LINE189_409 Bus1=189_405 Bus2=189_410 phases=3 Linecode=4c_.1 Length=0.17489 Units=m
New Line.LINE189_413 Bus1=189_409 Bus2=189_414 phases=3 Linecode=4c_.2 Length=0.47077 Units=m
New Line.LINE189_414 Bus1=189_410 Bus2=189_415 phases=3 Linecode=4c_.1 Length=0.18141 Units=m
New Line.LINE189_416 Bus1=189_411 Bus2=189_417 phases=3 Linecode=25_SAC_PC Length=6.2336 Units=m
New Line.LINE189_419 Bus1=189_414 Bus2=189_420 phases=3 Linecode=4c_.2 Length=0.40834 Units=m
New Line.LINE189_420 Bus1=189_415 Bus2=189_421 phases=3 Linecode=4c_.1 Length=0.21419 Units=m
New Line.LINE189_424 Bus1=189_420 Bus2=189_425 phases=3 Linecode=4c_.2 Length=0.84929 Units=m
New Line.LINE189_425 Bus1=189_421 Bus2=189_426 phases=3 Linecode=4c_.1 Length=0.196 Units=m
New Line.LINE189_429 Bus1=189_425 Bus2=189_430 phases=3 Linecode=4c_.2 Length=0.53666 Units=m
New Line.LINE189_430 Bus1=189_426 Bus2=189_431 phases=3 Linecode=4c_.1 Length=0.24965 Units=m
New Line.LINE189_434 Bus1=189_430 Bus2=189_435 phases=3 Linecode=4c_.2 Length=0.71825 Units=m
New Line.LINE189_435 Bus1=189_431 Bus2=189_436 phases=3 Linecode=4c_.1 Length=0.231 Units=m
New Line.LINE189_438 Bus1=189_435 Bus2=189_439 phases=3 Linecode=4c_.2 Length=0.67272 Units=m
New Line.LINE189_439 Bus1=189_436 Bus2=189_440 phases=3 Linecode=4c_.1 Length=1.1243 Units=m
New Line.LINE189_442 Bus1=189_439 Bus2=189_443 phases=3 Linecode=4c_.2 Length=0.66235 Units=m
New Line.LINE189_443 Bus1=189_440 Bus2=189_444 phases=3 Linecode=4c_.1 Length=0.25428 Units=m
New Line.LINE189_446 Bus1=189_443 Bus2=189_447 phases=3 Linecode=4c_.2 Length=0.52061 Units=m
New Line.LINE189_447 Bus1=189_444 Bus2=189_448 phases=3 Linecode=4c_.1 Length=0.6237 Units=m
New Line.LINE189_450 Bus1=189_447 Bus2=189_451 phases=3 Linecode=4c_.2 Length=0.57166 Units=m
New Line.LINE189_451 Bus1=189_448 Bus2=189_452 phases=3 Linecode=4c_.1 Length=0.36173 Units=m
New Line.LINE189_454 Bus1=189_451 Bus2=189_455 phases=3 Linecode=4c_.2 Length=0.5854 Units=m
New Line.LINE189_455 Bus1=189_452 Bus2=189_456 phases=3 Linecode=4c_.1 Length=0.36109 Units=m
New Line.LINE189_457 Bus1=189_455 Bus2=189_458 phases=3 Linecode=4c_.2 Length=0.40312 Units=m
New Line.LINE189_458 Bus1=189_456 Bus2=189_459 phases=3 Linecode=4c_.1 Length=0.19375 Units=m
New Line.LINE189_459 Bus1=189_458 Bus2=189_460 phases=3 Linecode=4c_.2 Length=0.6504 Units=m
New Line.LINE189_460 Bus1=189_459 Bus2=189_461 phases=3 Linecode=4c_.1 Length=2.0181 Units=m
New Line.LINE189_461 Bus1=189_460 Bus2=189_462 phases=3 Linecode=4c_.2 Length=0.68327 Units=m
New Line.LINE189_462 Bus1=189_461 Bus2=189_463 phases=3 Linecode=4c_.1 Length=3.0676 Units=m
New Line.LINE189_463 Bus1=189_462 Bus2=189_464 phases=3 Linecode=4c_.2 Length=0.60811 Units=m
New Line.LINE189_464 Bus1=189_463 Bus2=189_465 phases=3 Linecode=4c_.1 Length=1.5777 Units=m
New Line.LINE189_465 Bus1=189_464 Bus2=189_466 phases=3 Linecode=4c_.2 Length=0.68327 Units=m
New Line.LINE189_466 Bus1=189_465 Bus2=189_467 phases=3 Linecode=4c_.1 Length=1.9521 Units=m
New Line.LINE189_467 Bus1=189_466 Bus2=189_468 phases=3 Linecode=4c_.2 Length=0.55025 Units=m
New Line.LINE189_468 Bus1=189_467 Bus2=189_469 phases=3 Linecode=4c_.1 Length=3.9052 Units=m
New Line.LINE189_469 Bus1=189_468 Bus2=189_470 phases=3 Linecode=4c_.2 Length=0.61018 Units=m
New Line.LINE189_470 Bus1=189_469 Bus2=189_471 phases=3 Linecode=4c_.1 Length=2.2021 Units=m
New Line.LINE189_471 Bus1=189_470 Bus2=189_472 phases=3 Linecode=4c_.2 Length=0.73674 Units=m
New Line.LINE189_472 Bus1=189_471 Bus2=189_473 phases=3 Linecode=4c_.1 Length=1.7416 Units=m
New Line.LINE189_473 Bus1=189_472 Bus2=189_474 phases=3 Linecode=4c_.2 Length=0.62604 Units=m
New Line.LINE189_474 Bus1=189_473 Bus2=189_475 phases=3 Linecode=4c_.1 Length=2.15 Units=m
New Line.LINE189_475 Bus1=189_474 Bus2=189_476 phases=3 Linecode=4c_.2 Length=0.70646 Units=m
New Line.LINE189_476 Bus1=189_475 Bus2=189_477 phases=3 Linecode=4c_.1 Length=1.8701 Units=m
New Line.LINE189_477 Bus1=189_476 Bus2=189_478 phases=3 Linecode=4c_.2 Length=0.9477 Units=m
New Line.LINE189_478 Bus1=189_477 Bus2=189_479 phases=3 Linecode=4c_.1 Length=0.85647 Units=m
New Line.LINE189_479 Bus1=189_478 Bus2=189_480 phases=3 Linecode=4c_.2 Length=0.76464 Units=m
New Line.LINE189_480 Bus1=189_479 Bus2=189_481 phases=3 Linecode=4c_.1 Length=1.0271 Units=m
New Line.LINE189_481 Bus1=189_480 Bus2=189_482 phases=3 Linecode=4c_.2 Length=0.61365 Units=m
New Line.LINE189_482 Bus1=189_481 Bus2=189_483 phases=3 Linecode=4c_.1 Length=1.0104 Units=m
New Line.LINE189_483 Bus1=189_482 Bus2=189_484 phases=3 Linecode=4c_.2 Length=0.69623 Units=m
New Line.LINE189_484 Bus1=189_483 Bus2=189_485 phases=3 Linecode=4c_.1 Length=1.1159 Units=m
New Line.LINE189_485 Bus1=189_484 Bus2=189_486 phases=3 Linecode=4c_.2 Length=1.5783 Units=m
New Line.LINE189_486 Bus1=189_485 Bus2=189_487 phases=3 Linecode=4c_.1 Length=1.1547 Units=m
New Line.LINE189_487 Bus1=189_486 Bus2=189_488 phases=3 Linecode=4c_.2 Length=0.62768 Units=m
New Line.LINE189_488 Bus1=189_487 Bus2=189_489 phases=3 Linecode=4c_.1 Length=1.6803 Units=m
New Line.LINE189_489 Bus1=189_488 Bus2=189_490 phases=3 Linecode=4c_.2 Length=0.88243 Units=m
New Line.LINE189_491 Bus1=189_489 Bus2=189_492 phases=3 Linecode=4c_.1 Length=6.8987 Units=m
New Line.LINE189_492 Bus1=189_490 Bus2=189_493 phases=3 Linecode=4c_.2 Length=0.74078 Units=m
New Line.LINE189_494 Bus1=189_492 Bus2=189_495 phases=3 Linecode=4c_.06_UA Length=7.9883 Units=m
New Line.LINE189_495 Bus1=189_493 Bus2=189_496 phases=3 Linecode=4c_.2 Length=1.5032 Units=m
New Line.LINE189_499 Bus1=189_496 Bus2=189_500 phases=3 Linecode=4c_.2 Length=2.8476 Units=m
New Line.LINE189_503 Bus1=189_500 Bus2=189_504 phases=3 Linecode=4c_.2 Length=2.9712 Units=m
New Line.LINE189_507 Bus1=189_504 Bus2=189_508 phases=3 Linecode=4c_.1 Length=1.8352 Units=m
New Line.LINE189_533 Bus1=189_528 Bus2=189_534 phases=3 Linecode=4c_.06_UA Length=5.0081 Units=m
New Line.LINE189_540 Bus1=189_534 Bus2=189_541 phases=3 Linecode=4c_.06_UA Length=0.41897 Units=m
New Line.LINE189_548 Bus1=189_541 Bus2=189_549 phases=3 Linecode=4c_.06_UA Length=4.2827 Units=m
New Line.LINE189_556 Bus1=189_549 Bus2=189_557 phases=3 Linecode=4c_.06_UA Length=3.7557 Units=m
New Line.LINE189_563 Bus1=189_557 Bus2=189_564 phases=3 Linecode=4c_.06_UA Length=5.6029 Units=m
New Line.LINE189_565 Bus1=189_558 Bus2=189_566 phases=3 Linecode=2c_.04 Length=4.7784 Units=m
New Line.LINE189_568 Bus1=189_560 Bus2=189_569 phases=3 Linecode=4c_.1 Length=3.1135 Units=m
New Line.LINE189_573 Bus1=189_564 Bus2=189_574 phases=3 Linecode=4c_.06_UA Length=7.1918 Units=m
New Line.LINE189_577 Bus1=189_569 Bus2=189_578 phases=3 Linecode=4c_.1 Length=5.0234 Units=m
New Line.LINE189_582 Bus1=189_574 Bus2=189_583 phases=3 Linecode=35_SAC_PC Length=6.1494 Units=m
New Line.LINE189_586 Bus1=189_578 Bus2=189_587 phases=3 Linecode=4c_.1 Length=3.5139 Units=m
New Line.LINE189_592 Bus1=189_583 Bus2=189_593 phases=3 Linecode=35_SAC_PC Length=1.5539 Units=m
New Line.LINE189_596 Bus1=189_587 Bus2=189_597 phases=3 Linecode=4c_.1 Length=1.1901 Units=m
New Line.LINE189_602 Bus1=189_593 Bus2=189_603 phases=3 Linecode=35_SAC_PC Length=1.4521 Units=m
New Line.LINE189_605 Bus1=189_597 Bus2=189_606 phases=3 Linecode=4c_.1 Length=0.89 Units=m
New Line.LINE189_611 Bus1=189_603 Bus2=189_612 phases=3 Linecode=35_SAC_PC Length=0.69513 Units=m
New Line.LINE189_613 Bus1=189_604 Bus2=189_614 phases=3 Linecode=2c_.04 Length=4.0267 Units=m
New Line.LINE189_615 Bus1=189_606 Bus2=189_616 phases=3 Linecode=4c_.1 Length=0.77302 Units=m
New Line.LINE189_622 Bus1=189_612 Bus2=189_623 phases=3 Linecode=35_SAC_PC Length=1.5956 Units=m
New Line.LINE189_625 Bus1=189_616 Bus2=189_626 phases=3 Linecode=4c_.1 Length=0.53235 Units=m
New Line.LINE189_629 Bus1=189_619 Bus2=189_630 phases=3 Linecode=3c_.06_UA Length=4.2473 Units=m
New Line.LINE189_633 Bus1=189_623 Bus2=189_634 phases=3 Linecode=35_SAC_PC Length=0.92034 Units=m
New Line.LINE189_635 Bus1=189_626 Bus2=189_636 phases=3 Linecode=4c_.1 Length=0.64103 Units=m
New Line.LINE189_642 Bus1=189_634 Bus2=189_643 phases=3 Linecode=35_SAC_PC Length=0.21418 Units=m
New Line.LINE189_644 Bus1=189_636 Bus2=189_645 phases=3 Linecode=4c_.1 Length=0.3462 Units=m
New Line.LINE189_647 Bus1=189_638 Bus2=189_648 phases=3 Linecode=3c_.06_UA Length=2.5558 Units=m
New Line.LINE189_652 Bus1=189_643 Bus2=189_653 phases=3 Linecode=35_SAC_PC Length=0.22165 Units=m
New Line.LINE189_654 Bus1=189_645 Bus2=189_655 phases=3 Linecode=4c_.1 Length=0.4 Units=m
New Line.LINE189_661 Bus1=189_653 Bus2=189_662 phases=3 Linecode=35_SAC_PC Length=0.41764 Units=m
New Line.LINE189_663 Bus1=189_655 Bus2=189_664 phases=3 Linecode=4c_.1 Length=0.45156 Units=m
New Line.LINE189_670 Bus1=189_662 Bus2=189_671 phases=3 Linecode=35_SAC_PC Length=0.36428 Units=m
New Line.LINE189_672 Bus1=189_664 Bus2=189_673 phases=3 Linecode=4c_.1 Length=0.35726 Units=m
New Line.LINE189_679 Bus1=189_671 Bus2=189_680 phases=3 Linecode=35_SAC_PC Length=0.23844 Units=m
New Line.LINE189_681 Bus1=189_673 Bus2=189_682 phases=3 Linecode=4c_.1 Length=0.43323 Units=m
New Line.LINE189_686 Bus1=189_677 Bus2=189_687 phases=3 Linecode=2c_.0225 Length=2.3434 Units=m
New Line.LINE189_688 Bus1=189_680 Bus2=189_689 phases=3 Linecode=35_SAC_PC Length=0.26986 Units=m
New Line.LINE189_690 Bus1=189_681 Bus2=189_691 phases=3 Linecode=2c_.04 Length=2.4379 Units=m
New Line.LINE189_691 Bus1=189_682 Bus2=189_692 phases=3 Linecode=4c_.1 Length=0.68433 Units=m
New Line.LINE189_697 Bus1=189_689 Bus2=189_698 phases=3 Linecode=35_SAC_PC Length=0.17777 Units=m
New Line.LINE189_699 Bus1=189_692 Bus2=189_700 phases=3 Linecode=4c_.1 Length=4.0502 Units=m
New Line.LINE189_704 Bus1=189_698 Bus2=189_705 phases=3 Linecode=35_SAC_PC Length=0.20136 Units=m
New Line.LINE189_706 Bus1=189_700 Bus2=189_707 phases=3 Linecode=4c_.1 Length=1.2047 Units=m
New Line.LINE189_711 Bus1=189_705 Bus2=189_712 phases=3 Linecode=35_SAC_PC Length=0.28385 Units=m
New Line.LINE189_714 Bus1=189_707 Bus2=189_715 phases=3 Linecode=3c_185_SAC_XC Length=0.5257 Units=m
New Line.LINE189_719 Bus1=189_712 Bus2=189_720 phases=3 Linecode=35_SAC_PC Length=0.18687 Units=m
New Line.LINE189_721 Bus1=189_715 Bus2=189_722 phases=3 Linecode=3c_185_SAC_XC Length=0.71774 Units=m
New Line.LINE189_726 Bus1=189_720 Bus2=189_727 phases=3 Linecode=35_SAC_PC Length=0.25875 Units=m
New Line.LINE189_728 Bus1=189_722 Bus2=189_729 phases=3 Linecode=3c_185_SAC_XC Length=0.12235 Units=m
New Line.LINE189_733 Bus1=189_727 Bus2=189_734 phases=3 Linecode=35_SAC_PC Length=0.25691 Units=m
New Line.LINE189_735 Bus1=189_729 Bus2=189_736 phases=3 Linecode=3c_185_SAC_XC Length=0.17557 Units=m
New Line.LINE189_740 Bus1=189_734 Bus2=189_741 phases=3 Linecode=35_SAC_PC Length=0.20713 Units=m
New Line.LINE189_742 Bus1=189_736 Bus2=189_743 phases=3 Linecode=3c_185_SAC_XC Length=0.22767 Units=m
New Line.LINE189_747 Bus1=189_741 Bus2=189_748 phases=3 Linecode=35_SAC_PC Length=0.25826 Units=m
New Line.LINE189_748 Bus1=189_743 Bus2=189_749 phases=3 Linecode=3c_185_SAC_XC Length=0.22208 Units=m
New Line.LINE189_753 Bus1=189_748 Bus2=189_754 phases=3 Linecode=35_SAC_PC Length=0.33834 Units=m
New Line.LINE189_754 Bus1=189_749 Bus2=189_755 phases=3 Linecode=3c_185_SAC_XC Length=0.21381 Units=m
New Line.LINE189_759 Bus1=189_754 Bus2=189_760 phases=3 Linecode=35_SAC_PC Length=0.33204 Units=m
New Line.LINE189_760 Bus1=189_755 Bus2=189_761 phases=3 Linecode=3c_185_SAC_XC Length=0.21646 Units=m
New Line.LINE189_765 Bus1=189_760 Bus2=189_766 phases=3 Linecode=35_SAC_PC Length=0.23664 Units=m
New Line.LINE189_766 Bus1=189_761 Bus2=189_767 phases=3 Linecode=3c_185_SAC_XC Length=0.18466 Units=m
New Line.LINE189_770 Bus1=189_766 Bus2=189_771 phases=3 Linecode=35_SAC_PC Length=0.20243 Units=m
New Line.LINE189_771 Bus1=189_767 Bus2=189_772 phases=3 Linecode=3c_185_SAC_XC Length=0.17133 Units=m
New Line.LINE189_775 Bus1=189_771 Bus2=189_776 phases=3 Linecode=35_SAC_PC Length=0.26716 Units=m
New Line.LINE189_776 Bus1=189_772 Bus2=189_777 phases=3 Linecode=3c_185_SAC_XC Length=0.17524 Units=m
New Line.LINE189_780 Bus1=189_776 Bus2=189_781 phases=3 Linecode=35_SAC_PC Length=0.18006 Units=m
New Line.LINE189_781 Bus1=189_777 Bus2=189_782 phases=3 Linecode=3c_185_SAC_XC Length=0.1115 Units=m
New Line.LINE189_784 Bus1=189_781 Bus2=189_785 phases=3 Linecode=35_SAC_PC Length=0.16161 Units=m
New Line.LINE189_785 Bus1=189_782 Bus2=189_786 phases=3 Linecode=3c_185_SAC_XC Length=0.13909 Units=m
New Line.LINE189_788 Bus1=189_785 Bus2=189_789 phases=3 Linecode=35_SAC_PC Length=0.096747 Units=m
New Line.LINE189_789 Bus1=189_786 Bus2=189_790 phases=3 Linecode=3c_185_SAC_XC Length=0.23795 Units=m
New Line.LINE189_792 Bus1=189_789 Bus2=189_793 phases=3 Linecode=35_SAC_PC Length=0.23696 Units=m
New Line.LINE189_793 Bus1=189_790 Bus2=189_794 phases=3 Linecode=3c_185_SAC_XC Length=3.0631 Units=m
New Line.LINE189_796 Bus1=189_793 Bus2=189_797 phases=3 Linecode=35_SAC_PC Length=2.4914 Units=m
New Line.LINE189_797 Bus1=189_794 Bus2=189_798 phases=3 Linecode=3c_185_SAC_XC Length=0.18427 Units=m
New Line.LINE189_800 Bus1=189_797 Bus2=189_801 phases=3 Linecode=35_SAC_PC Length=0.94226 Units=m
New Line.LINE189_801 Bus1=189_798 Bus2=189_802 phases=3 Linecode=3c_185_SAC_XC Length=0.19424 Units=m
New Line.LINE189_804 Bus1=189_802 Bus2=189_805 phases=3 Linecode=3c_185_SAC_XC Length=0.32585 Units=m
New Line.LINE189_807 Bus1=189_805 Bus2=189_808 phases=3 Linecode=3c_185_SAC_XC Length=0.25378 Units=m
New Line.LINE189_810 Bus1=189_808 Bus2=189_811 phases=3 Linecode=3c_185_SAC_XC Length=0.18829 Units=m
New Line.LINE189_813 Bus1=189_811 Bus2=189_814 phases=3 Linecode=3c_185_SAC_XC Length=0.24221 Units=m
New Line.LINE189_816 Bus1=189_814 Bus2=189_817 phases=3 Linecode=3c_185_SAC_XC Length=0.18007 Units=m
New Line.LINE189_819 Bus1=189_817 Bus2=189_820 phases=3 Linecode=3c_185_SAC_XC Length=0.2879 Units=m
New Line.LINE189_823 Bus1=189_820 Bus2=189_824 phases=3 Linecode=3c_185_SAC_XC Length=0.24809 Units=m
New Line.LINE189_827 Bus1=189_824 Bus2=189_828 phases=3 Linecode=3c_185_SAC_XC Length=0.20756 Units=m
New Line.LINE189_831 Bus1=189_828 Bus2=189_832 phases=3 Linecode=3c_185_SAC_XC Length=0.18634 Units=m
New Line.LINE189_835 Bus1=189_832 Bus2=189_836 phases=3 Linecode=3c_185_SAC_XC Length=0.45327 Units=m
New Line.LINE189_839 Bus1=189_836 Bus2=189_840 phases=3 Linecode=3c_185_SAC_XC Length=7.9542 Units=m
New Line.LINE189_843 Bus1=189_840 Bus2=189_844 phases=3 Linecode=3c_185_SAC_XC Length=0.15925 Units=m
New Line.LINE189_847 Bus1=189_844 Bus2=189_848 phases=3 Linecode=3c_185_SAC_XC Length=0.14673 Units=m
New Line.LINE189_851 Bus1=189_848 Bus2=189_852 phases=3 Linecode=3c_185_SAC_XC Length=0.1549 Units=m
New Line.LINE189_854 Bus1=189_852 Bus2=189_855 phases=3 Linecode=3c_185_SAC_XC Length=0.12088 Units=m
New Line.LINE189_857 Bus1=189_855 Bus2=189_858 phases=3 Linecode=3c_185_SAC_XC Length=0.12245 Units=m
New Line.LINE189_860 Bus1=189_858 Bus2=189_861 phases=3 Linecode=3c_185_SAC_XC Length=0.12265 Units=m
New Line.LINE189_863 Bus1=189_861 Bus2=189_864 phases=3 Linecode=3c_185_SAC_XC Length=0.094556 Units=m
New Line.LINE189_866 Bus1=189_864 Bus2=189_867 phases=3 Linecode=3c_185_SAC_XC Length=8.552 Units=m
New Line.LINE189_870 Bus1=189_867 Bus2=189_871 phases=3 Linecode=3c_185_SAC_XC Length=4.4514 Units=m
New Line.LINE189_874 Bus1=189_871 Bus2=189_875 phases=3 Linecode=3c_185_SAC_XC Length=12.9514 Units=m
New Line.LINE189_877 Bus1=189_873 Bus2=189_878 phases=3 Linecode=25_SAC_PC Length=2.3909 Units=m
New Line.LINE189_879 Bus1=189_875 Bus2=189_880 phases=3 Linecode=3c_185_SAC_XC Length=8.2398 Units=m
New Line.LINE189_883 Bus1=189_880 Bus2=189_884 phases=3 Linecode=3c_185_SAC_XC Length=3.6978 Units=m
New Line.LINE189_887 Bus1=189_884 Bus2=189_888 phases=3 Linecode=3c_185_SAC_XC Length=3.7719 Units=m
New Line.LINE189_891 Bus1=189_888 Bus2=189_892 phases=3 Linecode=3c_185_SAC_XC Length=12.5189 Units=m
New Line.LINE189_896 Bus1=189_892 Bus2=189_897 phases=3 Linecode=3c_185_SAC_XC Length=12.3965 Units=m
New Line.LINE189_905 Bus1=189_897 Bus2=189_906 phases=3 Linecode=3c_185_SAC_XC Length=6.0147 Units=m
New Line.LINE189_912 Bus1=189_906 Bus2=189_913 phases=3 Linecode=25_SAC_XC Length=10.6374 Units=m
New Line.LINE189_951 Bus1=189_944 Bus2=189_952 phases=3 Linecode=25_SAC_PC Length=2.0517 Units=m
New Line.LINE189_1014 Bus1=189_1008 Bus2=189_1015 phases=3 Linecode=3c_185_SAC_XC Length=21.16 Units=m
New Line.LINE189_1130 Bus1=189_1122 Bus2=189_1131 phases=3 Linecode=35_SAC_XC Length=4.5377 Units=m
New Line.LINE189_1180 Bus1=189_1175 Bus2=189_1181 phases=3 Linecode=35_SAC_XC Length=5.7459 Units=m
New Line.LINE189_1181 Bus1=189_1175 Bus2=189_1182 phases=3 Linecode=35_SAC_XC Length=4.9602 Units=m
New Line.LINE189_Cmpd_0 Bus1=189_411 Bus2=189_453 phases=3 Linecode=25_SAC_PC Length=14.22858 Units=m
New Line.LINE189_Cmpd_1 Bus1=189_1008 Bus2=189_1175 phases=3 Linecode=35_SAC_XC Length=8.127173 Units=m
New Line.LINE189_Cmpd_2 Bus1=189_40 Bus2=189_124 phases=3 Linecode=25_SAC_PC Length=13.53876 Units=m
New Line.LINE189_Cmpd_3 Bus1=189_183 Bus2=189_353 phases=3 Linecode=2c_.04 Length=14.53824 Units=m
New Line.LINE189_Cmpd_4 Bus1=189_528 Bus2=189_677 phases=3 Linecode=25_SAC_PC Length=20.91847 Units=m
New Line.LINE189_Cmpd_5 Bus1=189_165 Bus2=189_285 phases=3 Linecode=2c_.04 Length=15.00561 Units=m
New Line.LINE189_Cmpd_6 Bus1=189_1077 Bus2=189_1203 phases=3 Linecode=35_SAC_XC Length=9.60901 Units=m
New Line.LINE189_Cmpd_7 Bus1=189_980 Bus2=189_1008 phases=3 Linecode=3c_185_SAC_XC Length=22.4063 Units=m
New Line.LINE189_Cmpd_8 Bus1=189_98 Bus2=189_411 phases=3 Linecode=25_SAC_PC Length=15.67184 Units=m
New Line.LINE189_Cmpd_9 Bus1=189_980 Bus2=189_1077 phases=3 Linecode=3c_185_SAC_XC Length=34.93344 Units=m
New Line.LINE189_Cmpd_10 Bus1=189_1008 Bus2=189_1122 phases=3 Linecode=35_SAC_XC Length=5.761215 Units=m
New Line.LINE189_Cmpd_11 Bus1=189_521 Bus2=189_545 phases=3 Linecode=4c_.1 Length=26.4808 Units=m
New Line.LINE189_Cmpd_12 Bus1=189_534 Bus2=189_818 phases=3 Linecode=25_SAC_PC Length=31.482941 Units=m
New Line.LINE189_Cmpd_13 Bus1=189_1077 Bus2=189_1191 phases=3 Linecode=35_SAC_XC Length=4.976503 Units=m
New Line.LINE189_Cmpd_14 Bus1=189_98 Bus2=189_322 phases=3 Linecode=25_SAC_PC Length=10.638188 Units=m
New Line.LINE189_Cmpd_15 Bus1=189_222 Bus2=189_372 phases=3 Linecode=2c_.0225 Length=19.06467 Units=m
New Line.LINE189_Cmpd_16 Bus1=189_183 Bus2=189_207 phases=3 Linecode=4c_.2 Length=27.1036 Units=m
New Line.LINE189_Cmpd_17 Bus1=189_638 Bus2=189_778 phases=3 Linecode=2c_.0225 Length=10.5741 Units=m
New Line.LINE189_Cmpd_18 Bus1=189_906 Bus2=189_980 phases=3 Linecode=3c_185_SAC_XC Length=15.5571 Units=m
New Line.LINE189_Cmpd_19 Bus1=189_944 Bus2=189_1118 phases=3 Linecode=25_SAC_PC Length=14.645898 Units=m
New Line.LINE189_Cmpd_20 Bus1=189_1077 Bus2=189_1198 phases=3 Linecode=35_SAC_XC Length=12.911103 Units=m
New Line.LINE189_Cmpd_21 Bus1=189_818 Bus2=189_873 phases=3 Linecode=25_SAC_PC Length=5.736454 Units=m
New Line.LINE189_Cmpd_22 Bus1=189_1015 Bus2=189_1173 phases=3 Linecode=35_SAC_XC Length=9.798828 Units=m
New Line.LINE189_Cmpd_23 Bus1=189_980 Bus2=189_1041 phases=3 Linecode=35_SAC_XC Length=10.09786 Units=m
New Line.LINE189_Cmpd_24 Bus1=189_1077 Bus2=189_1205 phases=3 Linecode=35_SAC_XC Length=18.964901 Units=m
New Line.LINE189_Cmpd_25 Bus1=189_797 Bus2=189_851 phases=3 Linecode=35_SAC_PC Length=15.593 Units=m
New Line.LINE189_Cmpd_26 Bus1=189_495 Bus2=189_579 phases=3 Linecode=2c_.0225 Length=9.536963 Units=m
New Line.LINE189_Cmpd_27 Bus1=189_495 Bus2=189_528 phases=3 Linecode=4c_.06_UA Length=6.71538 Units=m
New Line.LINE189_Cmpd_28 Bus1=189_118 Bus2=189_165 phases=3 Linecode=4c_.2 Length=22.31802 Units=m
New Line.LINE189_Cmpd_29 Bus1=189_118 Bus2=189_163 phases=3 Linecode=2c_.0225 Length=18.694524 Units=m
New Line.LINE189_Cmpd_30 Bus1=189_579 Bus2=189_638 phases=3 Linecode=2c_.0225 Length=25.06246 Units=m
New Line.LINE189_Cmpd_31 Bus1=189_677 Bus2=189_795 phases=3 Linecode=25_SAC_PC Length=12.65522 Units=m
New Line.LINE189_Cmpd_32 Bus1=189_560 Bus2=189_681 phases=3 Linecode=2c_.04 Length=13.17286 Units=m
New Line.LINE189_Cmpd_33 Bus1=189_818 Bus2=189_944 phases=3 Linecode=25_SAC_PC Length=15.885668 Units=m
New Line.LINE189_Cmpd_34 Bus1=189_897 Bus2=189_1021 phases=3 Linecode=35_SAC_XC Length=12.107744 Units=m
New Line.LINE189_Cmpd_35 Bus1=189_619 Bus2=189_695 phases=3 Linecode=3c_.06_UA Length=13.52322 Units=m
New Line.LINE189_Cmpd_36 Bus1=189_1 Bus2=189_40 phases=3 Linecode=4c_.2 Length=24.333598 Units=m
New Line.LINE189_Cmpd_37 Bus1=189_545 Bus2=189_604 phases=3 Linecode=2c_.04 Length=12.66109 Units=m
New Line.LINE189_Cmpd_38 Bus1=189_604 Bus2=189_624 phases=3 Linecode=2c_.04 Length=11.896 Units=m
New Line.LINE189_Cmpd_39 Bus1=189_521 Bus2=189_558 phases=3 Linecode=2c_.04 Length=13.91128 Units=m
New Line.LINE189_Cmpd_40 Bus1=189_124 Bus2=189_172 phases=3 Linecode=25_SAC_PC Length=8.31246 Units=m
New Line.LINE189_Cmpd_41 Bus1=189_287 Bus2=189_403 phases=3 Linecode=2c_.0225 Length=11.88676 Units=m
New Line.LINE189_Cmpd_42 Bus1=189_207 Bus2=189_287 phases=3 Linecode=2c_.0225 Length=13.58171 Units=m
New Line.LINE189_Cmpd_43 Bus1=189_285 Bus2=189_361 phases=3 Linecode=2c_.04 Length=14.51223 Units=m
New Line.LINE189_Cmpd_44 Bus1=189_98 Bus2=189_118 phases=3 Linecode=4c_.2 Length=20.25056 Units=m
New Line.LINE189_Cmpd_45 Bus1=189_897 Bus2=189_978 phases=3 Linecode=35_SAC_XC Length=9.30289 Units=m
New Line.LINE189_Cmpd_46 Bus1=189_394 Bus2=189_457 phases=3 Linecode=25_SAC_PC Length=15.40522 Units=m
New Line.LINE189_Cmpd_47 Bus1=189_172 Bus2=189_273 phases=3 Linecode=25_SAC_PC Length=14.5064 Units=m
New Line.LINE189_Cmpd_48 Bus1=189_897 Bus2=189_1057 phases=3 Linecode=35_SAC_XC Length=14.49193 Units=m
New Line.LINE189_Cmpd_49 Bus1=189_1015 Bus2=189_1180 phases=3 Linecode=35_SAC_XC Length=18.385949 Units=m
New Line.LINE189_Cmpd_50 Bus1=189_353 Bus2=189_434 phases=3 Linecode=2c_.04 Length=15.9836 Units=m
New Line.LINE189_Cmpd_51 Bus1=189_558 Bus2=189_575 phases=3 Linecode=2c_.04 Length=9.8063 Units=m
New Line.LINE189_Cmpd_52 Bus1=189_873 Bus2=189_989 phases=3 Linecode=25_SAC_PC Length=12.05924 Units=m
New Line.LINE189_Cmpd_53 Bus1=189_508 Bus2=189_542 phases=3 Linecode=2c_.0225 Length=17.56829 Units=m
New Line.LINE189_Cmpd_54 Bus1=189_322 Bus2=189_394 phases=3 Linecode=25_SAC_PC Length=8.33374 Units=m
New Line.LINE189_Cmpd_55 Bus1=189_579 Bus2=189_619 phases=3 Linecode=3c_.06_UA Length=6.8909 Units=m
New Line.LINE189_Cmpd_56 Bus1=189_681 Bus2=189_713 phases=3 Linecode=2c_.04 Length=6.62685 Units=m
New Line.LINE189_Cmpd_57 Bus1=189_222 Bus2=189_320 phases=3 Linecode=4c_.2 Length=16.54675 Units=m
New Line.LINE189_Cmpd_58 Bus1=189_207 Bus2=189_222 phases=3 Linecode=4c_.2 Length=19.0306 Units=m
New Line.LINE189_Cmpd_59 Bus1=189_508 Bus2=189_521 phases=3 Linecode=4c_.1 Length=17.81463 Units=m
New Line.LINE189_Cmpd_60 Bus1=189_165 Bus2=189_183 phases=3 Linecode=4c_.2 Length=19.2241 Units=m
New Line.LINE189_Cmpd_61 Bus1=189_545 Bus2=189_560 phases=3 Linecode=4c_.1 Length=15.4327 Units=m
