New Line.LINE189_1 Bus1=189_1 Bus2=189_2 phases=3 Linecode=4c_.2 Length=0.037697 Units=m
New Line.LINE189_2 Bus1=189_2 Bus2=189_3 phases=3 Linecode=4c_.2 Length=0.051623 Units=m
New Line.LINE189_3 Bus1=189_3 Bus2=189_4 phases=3 Linecode=4c_.2 Length=0.050803 Units=m
New Line.LINE189_4 Bus1=189_4 Bus2=189_5 phases=3 Linecode=4c_.2 Length=0.035001 Units=m
New Line.LINE189_5 Bus1=189_5 Bus2=189_6 phases=3 Linecode=4c_.2 Length=0.053759 Units=m
New Line.LINE189_6 Bus1=189_6 Bus2=189_7 phases=3 Linecode=4c_.2 Length=0.051078 Units=m
New Line.LINE189_7 Bus1=189_7 Bus2=189_8 phases=3 Linecode=4c_.2 Length=0.04993 Units=m
New Line.LINE189_8 Bus1=189_8 Bus2=189_9 phases=3 Linecode=4c_.2 Length=0.048083 Units=m
New Line.LINE189_9 Bus1=189_9 Bus2=189_10 phases=3 Linecode=4c_.2 Length=0.054203 Units=m
New Line.LINE189_10 Bus1=189_10 Bus2=189_11 phases=3 Linecode=4c_.2 Length=0.1418 Units=m
New Line.LINE189_11 Bus1=189_11 Bus2=189_12 phases=3 Linecode=4c_.2 Length=0.055454 Units=m
New Line.LINE189_12 Bus1=189_12 Bus2=189_13 phases=3 Linecode=4c_.2 Length=0.052803 Units=m
New Line.LINE189_13 Bus1=189_13 Bus2=189_14 phases=3 Linecode=4c_.2 Length=0.051864 Units=m
New Line.LINE189_14 Bus1=189_14 Bus2=189_15 phases=3 Linecode=4c_.2 Length=0.05825 Units=m
New Line.LINE189_15 Bus1=189_15 Bus2=189_16 phases=3 Linecode=4c_.2 Length=0.059304 Units=m
New Line.LINE189_16 Bus1=189_16 Bus2=189_17 phases=3 Linecode=4c_.2 Length=0.061008 Units=m
New Line.LINE189_17 Bus1=189_17 Bus2=189_18 phases=3 Linecode=4c_.2 Length=0.06265 Units=m
New Line.LINE189_18 Bus1=189_18 Bus2=189_19 phases=3 Linecode=4c_.2 Length=0.056046 Units=m
New Line.LINE189_19 Bus1=189_19 Bus2=189_20 phases=3 Linecode=4c_.2 Length=0.041999 Units=m
New Line.LINE189_20 Bus1=189_20 Bus2=189_21 phases=3 Linecode=4c_.2 Length=0.058138 Units=m
New Line.LINE189_21 Bus1=189_21 Bus2=189_22 phases=3 Linecode=4c_.2 Length=0.059135 Units=m
New Line.LINE189_22 Bus1=189_22 Bus2=189_23 phases=3 Linecode=4c_.2 Length=0.05016 Units=m
New Line.LINE189_23 Bus1=189_23 Bus2=189_24 phases=3 Linecode=4c_.2 Length=0.064133 Units=m
New Line.LINE189_24 Bus1=189_24 Bus2=189_25 phases=3 Linecode=4c_.2 Length=0.066287 Units=m
New Line.LINE189_25 Bus1=189_25 Bus2=189_26 phases=3 Linecode=4c_.2 Length=0.59587 Units=m
New Line.LINE189_26 Bus1=189_26 Bus2=189_27 phases=3 Linecode=4c_.2 Length=1.5979 Units=m
New Line.LINE189_27 Bus1=189_27 Bus2=189_28 phases=3 Linecode=4c_.2 Length=3.7697 Units=m
New Line.LINE189_28 Bus1=189_28 Bus2=189_29 phases=3 Linecode=4c_.2 Length=0.35482 Units=m
New Line.LINE189_29 Bus1=189_29 Bus2=189_30 phases=3 Linecode=4c_.2 Length=0.63469 Units=m
New Line.LINE189_30 Bus1=189_30 Bus2=189_31 phases=3 Linecode=4c_.2 Length=1.6477 Units=m
New Line.LINE189_31 Bus1=189_31 Bus2=189_32 phases=3 Linecode=4c_.2 Length=0.26665 Units=m
New Line.LINE189_32 Bus1=189_32 Bus2=189_33 phases=3 Linecode=4c_.2 Length=0.35712 Units=m
New Line.LINE189_33 Bus1=189_33 Bus2=189_34 phases=3 Linecode=4c_.2 Length=0.96564 Units=m
New Line.LINE189_34 Bus1=189_34 Bus2=189_35 phases=3 Linecode=4c_.2 Length=3.349 Units=m
New Line.LINE189_35 Bus1=189_35 Bus2=189_36 phases=3 Linecode=4_PSC Length=0.24287 Units=m
New Line.LINE189_36 Bus1=189_35 Bus2=189_37 phases=3 Linecode=4c_.2 Length=3.9744 Units=m
New Line.LINE189_37 Bus1=189_36 Bus2=189_38 phases=3 Linecode=4_PSC Length=0.26102 Units=m
New Line.LINE189_38 Bus1=189_37 Bus2=189_39 phases=3 Linecode=4_XC Length=0.081383 Units=m
New Line.LINE189_39 Bus1=189_37 Bus2=189_40 phases=3 Linecode=4c_.2 Length=5.4489 Units=m
New Line.LINE189_40 Bus1=189_38 Bus2=189_41 phases=3 Linecode=4_PSC Length=0.162 Units=m
New Line.LINE189_41 Bus1=189_39 Bus2=189_42 phases=3 Linecode=4_XC Length=0.080058 Units=m
New Line.LINE189_42 Bus1=189_40 Bus2=189_43 phases=3 Linecode=4c_.2 Length=9.1269 Units=m
New Line.LINE189_43 Bus1=189_40 Bus2=189_44 phases=3 Linecode=25_SAC_PC Length=0.34582 Units=m
New Line.LINE189_44 Bus1=189_41 Bus2=189_45 phases=3 Linecode=4_PSC Length=0.15603 Units=m
New Line.LINE189_45 Bus1=189_42 Bus2=189_46 phases=3 Linecode=4_XC Length=0.081394 Units=m
New Line.LINE189_46 Bus1=189_43 Bus2=189_47 phases=3 Linecode=4c_.2 Length=6.6063 Units=m
New Line.LINE189_47 Bus1=189_44 Bus2=189_48 phases=3 Linecode=25_SAC_PC Length=0.39513 Units=m
New Line.LINE189_48 Bus1=189_45 Bus2=189_49 phases=3 Linecode=4_PSC Length=0.26089 Units=m
New Line.LINE189_49 Bus1=189_46 Bus2=189_50 phases=3 Linecode=4_XC Length=0.080006 Units=m
New Line.LINE189_50 Bus1=189_47 Bus2=189_51 phases=3 Linecode=4c_.2 Length=1.7791 Units=m
New Line.LINE189_51 Bus1=189_48 Bus2=189_52 phases=3 Linecode=25_SAC_PC Length=0.59002 Units=m
New Line.LINE189_52 Bus1=189_49 Bus2=189_53 phases=3 Linecode=4_PSC Length=0.29243 Units=m
New Line.LINE189_53 Bus1=189_50 Bus2=189_54 phases=3 Linecode=4_XC Length=0.047675 Units=m
New Line.LINE189_54 Bus1=189_51 Bus2=189_55 phases=3 Linecode=4c_.2 Length=3.0359 Units=m
New Line.LINE189_55 Bus1=189_52 Bus2=189_56 phases=3 Linecode=25_SAC_PC Length=0.31583 Units=m
New Line.LINE189_56 Bus1=189_53 Bus2=189_57 phases=3 Linecode=4_PSC Length=0.44991 Units=m
New Line.LINE189_57 Bus1=189_54 Bus2=189_58 phases=3 Linecode=4_XC Length=0.046174 Units=m
New Line.LINE189_58 Bus1=189_55 Bus2=189_59 phases=3 Linecode=4c_.2 Length=1.4394 Units=m
New Line.LINE189_59 Bus1=189_56 Bus2=189_60 phases=3 Linecode=25_SAC_PC Length=0.78712 Units=m
New Line.LINE189_60 Bus1=189_57 Bus2=189_61 phases=3 Linecode=4_PSC Length=0.51982 Units=m
New Line.LINE189_61 Bus1=189_58 Bus2=189_62 phases=3 Linecode=4_XC Length=0.047413 Units=m
New Line.LINE189_62 Bus1=189_59 Bus2=189_63 phases=3 Linecode=4_PC Length=0.49697 Units=m
New Line.LINE189_63 Bus1=189_59 Bus2=189_64 phases=3 Linecode=4c_.2 Length=0.032019 Units=m
New Line.LINE189_64 Bus1=189_60 Bus2=189_65 phases=3 Linecode=25_SAC_PC Length=1.0379 Units=m
New Line.LINE189_65 Bus1=189_61 Bus2=189_66 phases=3 Linecode=4_PSC Length=0.23282 Units=m
New Line.LINE189_66 Bus1=189_62 Bus2=189_67 phases=3 Linecode=4_XC Length=0.047011 Units=m
New Line.LINE189_67 Bus1=189_63 Bus2=189_68 phases=3 Linecode=4_PC Length=0.223 Units=m
New Line.LINE189_68 Bus1=189_64 Bus2=189_69 phases=3 Linecode=4c_.2 Length=1.5481 Units=m
New Line.LINE189_69 Bus1=189_65 Bus2=189_70 phases=3 Linecode=25_SAC_PC Length=0.43424 Units=m
New Line.LINE189_70 Bus1=189_66 Bus2=189_71 phases=3 Linecode=4_PSC Length=0.184 Units=m
New Line.LINE189_71 Bus1=189_67 Bus2=189_72 phases=3 Linecode=4_XC Length=0.51798 Units=m
New Line.LINE189_72 Bus1=189_68 Bus2=189_73 phases=3 Linecode=4_PC Length=0.29093 Units=m
New Line.LINE189_73 Bus1=189_69 Bus2=189_74 phases=3 Linecode=4c_.2 Length=1.3067 Units=m
New Line.LINE189_74 Bus1=189_70 Bus2=189_75 phases=3 Linecode=25_SAC_PC Length=1.0022 Units=m
New Line.LINE189_75 Bus1=189_71 Bus2=189_76 phases=3 Linecode=4_PSC Length=0.23114 Units=m
New Line.LINE189_76 Bus1=189_72 Bus2=189_77 phases=3 Linecode=4_XC Length=0.15855 Units=m
New Line.LINE189_77 Bus1=189_73 Bus2=189_78 phases=3 Linecode=4_PC Length=0.34406 Units=m
New Line.LINE189_78 Bus1=189_74 Bus2=189_79 phases=3 Linecode=4c_.2 Length=1.1114 Units=m
New Line.LINE189_79 Bus1=189_75 Bus2=189_80 phases=3 Linecode=25_SAC_PC Length=0.12484 Units=m
New Line.LINE189_80 Bus1=189_76 Bus2=189_81 phases=3 Linecode=4_PSC Length=0.20874 Units=m
New Line.LINE189_81 Bus1=189_77 Bus2=189_82 phases=3 Linecode=4_XC Length=0.38331 Units=m
New Line.LINE189_82 Bus1=189_78 Bus2=189_83 phases=3 Linecode=4_PC Length=0.83987 Units=m
New Line.LINE189_83 Bus1=189_79 Bus2=189_84 phases=3 Linecode=4c_.2 Length=1.1591 Units=m
New Line.LINE189_84 Bus1=189_80 Bus2=189_85 phases=3 Linecode=25_SAC_PC Length=0.92673 Units=m
New Line.LINE189_85 Bus1=189_81 Bus2=189_86 phases=3 Linecode=4_PSC Length=0.22987 Units=m
New Line.LINE189_86 Bus1=189_83 Bus2=189_87 phases=3 Linecode=4_PC Length=0.92763 Units=m
New Line.LINE189_87 Bus1=189_84 Bus2=189_88 phases=3 Linecode=4c_.2 Length=1.9774 Units=m
New Line.LINE189_88 Bus1=189_85 Bus2=189_89 phases=3 Linecode=25_SAC_PC Length=0.42125 Units=m
New Line.LINE189_89 Bus1=189_86 Bus2=189_90 phases=3 Linecode=4_PSC Length=0.17359 Units=m
New Line.LINE189_90 Bus1=189_87 Bus2=189_91 phases=3 Linecode=4_PC Length=1.0925 Units=m
New Line.LINE189_91 Bus1=189_88 Bus2=189_92 phases=3 Linecode=4c_.2 Length=0.21233 Units=m
New Line.LINE189_92 Bus1=189_89 Bus2=189_93 phases=3 Linecode=25_SAC_PC Length=0.45419 Units=m
New Line.LINE189_93 Bus1=189_90 Bus2=189_94 phases=3 Linecode=4_PSC Length=0.43943 Units=m
New Line.LINE189_94 Bus1=189_92 Bus2=189_95 phases=3 Linecode=4c_.2 Length=1.2027 Units=m
New Line.LINE189_95 Bus1=189_93 Bus2=189_96 phases=3 Linecode=25_SAC_PC Length=0.45341 Units=m
New Line.LINE189_96 Bus1=189_94 Bus2=189_97 phases=3 Linecode=4_PSC Length=7.7817 Units=m
New Line.LINE189_97 Bus1=189_95 Bus2=189_98 phases=3 Linecode=4c_185_SAC_XC Length=4.2412 Units=m
New Line.LINE189_98 Bus1=189_96 Bus2=189_99 phases=3 Linecode=25_SAC_PC Length=0.64239 Units=m
New Line.LINE189_99 Bus1=189_98 Bus2=189_100 phases=3 Linecode=25_SAC_PC Length=0.090785 Units=m
New Line.LINE189_100 Bus1=189_98 Bus2=189_101 phases=3 Linecode=25_SAC_PC Length=0.086999 Units=m
New Line.LINE189_101 Bus1=189_98 Bus2=189_102 phases=3 Linecode=4c_.2 Length=3.466 Units=m
New Line.LINE189_102 Bus1=189_99 Bus2=189_103 phases=3 Linecode=25_SAC_PC Length=3.5116 Units=m
New Line.LINE189_103 Bus1=189_100 Bus2=189_104 phases=3 Linecode=25_SAC_PC Length=0.090211 Units=m
New Line.LINE189_104 Bus1=189_101 Bus2=189_105 phases=3 Linecode=25_SAC_PC Length=0.085989 Units=m
New Line.LINE189_105 Bus1=189_102 Bus2=189_106 phases=3 Linecode=4c_.2 Length=3.059 Units=m
New Line.LINE189_106 Bus1=189_103 Bus2=189_107 phases=3 Linecode=25_SAC_PC Length=0.28747 Units=m
New Line.LINE189_107 Bus1=189_104 Bus2=189_108 phases=3 Linecode=25_SAC_PC Length=0.091241 Units=m
New Line.LINE189_108 Bus1=189_105 Bus2=189_109 phases=3 Linecode=25_SAC_PC Length=0.086684 Units=m
New Line.LINE189_109 Bus1=189_106 Bus2=189_110 phases=3 Linecode=4c_.2 Length=0.48716 Units=m
New Line.LINE189_110 Bus1=189_107 Bus2=189_111 phases=3 Linecode=25_SAC_PC Length=0.35446 Units=m
New Line.LINE189_111 Bus1=189_108 Bus2=189_112 phases=3 Linecode=25_SAC_PC Length=0.090139 Units=m
New Line.LINE189_112 Bus1=189_109 Bus2=189_113 phases=3 Linecode=25_SAC_PC Length=0.086764 Units=m
New Line.LINE189_113 Bus1=189_110 Bus2=189_114 phases=3 Linecode=4c_.2 Length=10.735 Units=m
New Line.LINE189_114 Bus1=189_111 Bus2=189_115 phases=3 Linecode=25_SAC_PC Length=0.19948 Units=m
New Line.LINE189_115 Bus1=189_112 Bus2=189_116 phases=3 Linecode=25_SAC_PC Length=0.61725 Units=m
New Line.LINE189_116 Bus1=189_113 Bus2=189_117 phases=3 Linecode=25_SAC_PC Length=1.6285 Units=m
New Line.LINE189_117 Bus1=189_114 Bus2=189_118 phases=3 Linecode=4c_.2 Length=2.5034 Units=m
New Line.LINE189_118 Bus1=189_115 Bus2=189_119 phases=3 Linecode=25_SAC_PC Length=0.26102 Units=m
New Line.LINE189_119 Bus1=189_116 Bus2=189_120 phases=3 Linecode=25_SAC_PC Length=0.069426 Units=m
New Line.LINE189_120 Bus1=189_117 Bus2=189_121 phases=3 Linecode=25_SAC_PC Length=0.059363 Units=m
New Line.LINE189_121 Bus1=189_118 Bus2=189_122 phases=3 Linecode=2c_.0225 Length=13.2313 Units=m
New Line.LINE189_122 Bus1=189_118 Bus2=189_123 phases=3 Linecode=4c_.2 Length=0.88242 Units=m
New Line.LINE189_123 Bus1=189_119 Bus2=189_124 phases=3 Linecode=25_SAC_PC Length=0.99366 Units=m
New Line.LINE189_124 Bus1=189_120 Bus2=189_125 phases=3 Linecode=25_SAC_PC Length=0.068411 Units=m
New Line.LINE189_125 Bus1=189_121 Bus2=189_126 phases=3 Linecode=25_SAC_PC Length=0.058728 Units=m
New Line.LINE189_126 Bus1=189_122 Bus2=189_127 phases=3 Linecode=2c_.0225 Length=0.54803 Units=m
New Line.LINE189_127 Bus1=189_123 Bus2=189_128 phases=3 Linecode=4c_.2 Length=2.2401 Units=m
New Line.LINE189_128 Bus1=189_124 Bus2=189_129 phases=3 Linecode=25_SAC_PC Length=0.79425 Units=m
New Line.LINE189_129 Bus1=189_124 Bus2=189_130 phases=3 Linecode=25_SAC_PC Length=6.5162 Units=m
New Line.LINE189_130 Bus1=189_125 Bus2=189_131 phases=3 Linecode=25_SAC_PC Length=0.069318 Units=m
New Line.LINE189_131 Bus1=189_126 Bus2=189_132 phases=3 Linecode=25_SAC_PC Length=0.06 Units=m
New Line.LINE189_132 Bus1=189_127 Bus2=189_133 phases=3 Linecode=2c_.0225 Length=0.1 Units=m
New Line.LINE189_133 Bus1=189_128 Bus2=189_134 phases=3 Linecode=2c_.007_VIR Length=1.0717 Units=m
New Line.LINE189_134 Bus1=189_128 Bus2=189_135 phases=3 Linecode=4c_.2 Length=5.3252 Units=m
New Line.LINE189_135 Bus1=189_129 Bus2=189_136 phases=3 Linecode=25_SAC_PC Length=0.37594 Units=m
New Line.LINE189_136 Bus1=189_131 Bus2=189_137 phases=3 Linecode=25_SAC_PC Length=0.06868 Units=m
New Line.LINE189_137 Bus1=189_132 Bus2=189_138 phases=3 Linecode=25_SAC_PC Length=0.0586 Units=m
New Line.LINE189_138 Bus1=189_133 Bus2=189_139 phases=3 Linecode=2c_.0225 Length=0.097014 Units=m
New Line.LINE189_139 Bus1=189_134 Bus2=189_140 phases=3 Linecode=4_PC Length=0.24533 Units=m
New Line.LINE189_140 Bus1=189_135 Bus2=189_141 phases=3 Linecode=4c_.2 Length=1.321 Units=m
New Line.LINE189_141 Bus1=189_136 Bus2=189_142 phases=3 Linecode=25_SAC_PC Length=0.19197 Units=m
New Line.LINE189_142 Bus1=189_137 Bus2=189_143 phases=3 Linecode=25_SAC_PC Length=0.069355 Units=m
New Line.LINE189_143 Bus1=189_138 Bus2=189_144 phases=3 Linecode=25_SAC_PC Length=0.059203 Units=m
New Line.LINE189_144 Bus1=189_139 Bus2=189_145 phases=3 Linecode=2c_.0225 Length=0.22091 Units=m
New Line.LINE189_145 Bus1=189_140 Bus2=189_146 phases=3 Linecode=4_PC Length=0.22778 Units=m
New Line.LINE189_146 Bus1=189_141 Bus2=189_147 phases=3 Linecode=4c_.2 Length=2.6631 Units=m
New Line.LINE189_147 Bus1=189_142 Bus2=189_148 phases=3 Linecode=25_SAC_PC Length=0.44185 Units=m
New Line.LINE189_148 Bus1=189_143 Bus2=189_149 phases=3 Linecode=25_SAC_PC Length=0.068359 Units=m
New Line.LINE189_149 Bus1=189_144 Bus2=189_150 phases=3 Linecode=25_SAC_PC Length=0.059135 Units=m
New Line.LINE189_150 Bus1=189_145 Bus2=189_151 phases=3 Linecode=2c_.0225 Length=0.13027 Units=m
New Line.LINE189_151 Bus1=189_146 Bus2=189_152 phases=3 Linecode=4_PC Length=0.18931 Units=m
New Line.LINE189_152 Bus1=189_147 Bus2=189_153 phases=3 Linecode=4c_.2 Length=3.9025 Units=m
New Line.LINE189_153 Bus1=189_148 Bus2=189_154 phases=3 Linecode=25_SAC_PC Length=4.9856 Units=m
New Line.LINE189_154 Bus1=189_149 Bus2=189_155 phases=3 Linecode=25_SAC_PC Length=0.068964 Units=m
New Line.LINE189_155 Bus1=189_150 Bus2=189_156 phases=3 Linecode=25_SAC_PC Length=0.059304 Units=m
New Line.LINE189_156 Bus1=189_151 Bus2=189_157 phases=3 Linecode=2c_.0225 Length=0.7287 Units=m
New Line.LINE189_157 Bus1=189_152 Bus2=189_158 phases=3 Linecode=4_PC Length=0.17623 Units=m
New Line.LINE189_158 Bus1=189_153 Bus2=189_159 phases=3 Linecode=4c_.2 Length=3.4497 Units=m
New Line.LINE189_159 Bus1=189_154 Bus2=189_160 phases=3 Linecode=25_SAC_PC Length=0.238 Units=m
New Line.LINE189_160 Bus1=189_155 Bus2=189_161 phases=3 Linecode=25_SAC_PC Length=0.069317 Units=m
New Line.LINE189_161 Bus1=189_156 Bus2=189_162 phases=3 Linecode=25_SAC_PC Length=0.059481 Units=m
New Line.LINE189_162 Bus1=189_157 Bus2=189_163 phases=3 Linecode=2c_.0225 Length=3.6383 Units=m
New Line.LINE189_163 Bus1=189_158 Bus2=189_164 phases=3 Linecode=4_PC Length=0.21163 Units=m
New Line.LINE189_164 Bus1=189_159 Bus2=189_165 phases=3 Linecode=4c_.2 Length=2.534 Units=m
New Line.LINE189_165 Bus1=189_160 Bus2=189_166 phases=3 Linecode=25_SAC_PC Length=0.19955 Units=m
New Line.LINE189_166 Bus1=189_161 Bus2=189_167 phases=3 Linecode=25_SAC_PC Length=0.09986 Units=m
New Line.LINE189_167 Bus1=189_162 Bus2=189_168 phases=3 Linecode=25_SAC_PC Length=0.05948 Units=m
New Line.LINE189_168 Bus1=189_164 Bus2=189_169 phases=3 Linecode=4_PC Length=1.2497 Units=m
New Line.LINE189_169 Bus1=189_165 Bus2=189_170 phases=3 Linecode=2c_.04 Length=1.3384 Units=m
New Line.LINE189_170 Bus1=189_165 Bus2=189_171 phases=3 Linecode=4c_.2 Length=3.1247 Units=m
New Line.LINE189_171 Bus1=189_166 Bus2=189_172 phases=3 Linecode=25_SAC_PC Length=1.0853 Units=m
New Line.LINE189_172 Bus1=189_167 Bus2=189_173 phases=3 Linecode=25_SAC_PC Length=0.0846 Units=m
New Line.LINE189_173 Bus1=189_168 Bus2=189_174 phases=3 Linecode=25_SAC_PC Length=0.39269 Units=m
New Line.LINE189_174 Bus1=189_169 Bus2=189_175 phases=3 Linecode=4_PC Length=5.4152 Units=m
New Line.LINE189_175 Bus1=189_170 Bus2=189_176 phases=3 Linecode=2c_.04 Length=0.66502 Units=m
New Line.LINE189_176 Bus1=189_171 Bus2=189_177 phases=3 Linecode=4c_.2 Length=4.6471 Units=m
New Line.LINE189_177 Bus1=189_172 Bus2=189_178 phases=3 Linecode=25_SAC_PC Length=0.8631 Units=m
New Line.LINE189_178 Bus1=189_172 Bus2=189_179 phases=3 Linecode=25_SAC_PC Length=5.7601 Units=m
New Line.LINE189_179 Bus1=189_173 Bus2=189_180 phases=3 Linecode=25_SAC_PC Length=0.084433 Units=m
New Line.LINE189_180 Bus1=189_174 Bus2=189_181 phases=3 Linecode=25_SAC_PC Length=0.23983 Units=m
New Line.LINE189_181 Bus1=189_176 Bus2=189_182 phases=3 Linecode=2c_.04 Length=0.32821 Units=m
New Line.LINE189_182 Bus1=189_177 Bus2=189_183 phases=3 Linecode=4c_.2 Length=11.4523 Units=m
New Line.LINE189_183 Bus1=189_178 Bus2=189_184 phases=3 Linecode=25_SAC_PC Length=0.25947 Units=m
New Line.LINE189_184 Bus1=189_180 Bus2=189_185 phases=3 Linecode=25_SAC_PC Length=0.085 Units=m
New Line.LINE189_185 Bus1=189_181 Bus2=189_186 phases=3 Linecode=25_SAC_PC Length=0.076484 Units=m
New Line.LINE189_186 Bus1=189_182 Bus2=189_187 phases=3 Linecode=2c_.04 Length=4.2469 Units=m
New Line.LINE189_187 Bus1=189_183 Bus2=189_188 phases=3 Linecode=2c_.04 Length=1.5711 Units=m
New Line.LINE189_188 Bus1=189_183 Bus2=189_189 phases=3 Linecode=4c_.2 Length=7.6383 Units=m
New Line.LINE189_189 Bus1=189_184 Bus2=189_190 phases=3 Linecode=25_SAC_PC Length=0.13466 Units=m
New Line.LINE189_190 Bus1=189_185 Bus2=189_191 phases=3 Linecode=25_SAC_PC Length=0.085024 Units=m
New Line.LINE189_191 Bus1=189_186 Bus2=189_192 phases=3 Linecode=25_SAC_PC Length=0.07569 Units=m
New Line.LINE189_192 Bus1=189_187 Bus2=189_193 phases=3 Linecode=2c_.04 Length=6.5092 Units=m
New Line.LINE189_193 Bus1=189_188 Bus2=189_194 phases=3 Linecode=2c_.04 Length=1.3316 Units=m
New Line.LINE189_194 Bus1=189_189 Bus2=189_195 phases=3 Linecode=4c_.2 Length=9.2263 Units=m
New Line.LINE189_195 Bus1=189_190 Bus2=189_196 phases=3 Linecode=25_SAC_PC Length=0.19815 Units=m
New Line.LINE189_196 Bus1=189_191 Bus2=189_197 phases=3 Linecode=25_SAC_PC Length=0.13336 Units=m
New Line.LINE189_197 Bus1=189_192 Bus2=189_198 phases=3 Linecode=25_SAC_PC Length=0.075326 Units=m
New Line.LINE189_198 Bus1=189_193 Bus2=189_199 phases=3 Linecode=2c_.04 Length=0.14663 Units=m
New Line.LINE189_199 Bus1=189_194 Bus2=189_200 phases=3 Linecode=2c_.04 Length=1.1544 Units=m
New Line.LINE189_200 Bus1=189_195 Bus2=189_201 phases=3 Linecode=4c_.2 Length=4.7033 Units=m
New Line.LINE189_201 Bus1=189_196 Bus2=189_202 phases=3 Linecode=25_SAC_PC Length=0.48168 Units=m
New Line.LINE189_202 Bus1=189_197 Bus2=189_203 phases=3 Linecode=25_SAC_PC Length=0.13285 Units=m
New Line.LINE189_203 Bus1=189_198 Bus2=189_204 phases=3 Linecode=25_SAC_PC Length=0.076322 Units=m
New Line.LINE189_204 Bus1=189_199 Bus2=189_205 phases=3 Linecode=2c_.04 Length=0.24432 Units=m
New Line.LINE189_205 Bus1=189_200 Bus2=189_206 phases=3 Linecode=2c_.04 Length=1.0313 Units=m
New Line.LINE189_206 Bus1=189_201 Bus2=189_207 phases=3 Linecode=4c_.2 Length=5.5357 Units=m
New Line.LINE189_207 Bus1=189_202 Bus2=189_208 phases=3 Linecode=25_SAC_PC Length=3.9291 Units=m
New Line.LINE189_208 Bus1=189_203 Bus2=189_209 phases=3 Linecode=25_SAC_PC Length=0.13297 Units=m
New Line.LINE189_209 Bus1=189_204 Bus2=189_210 phases=3 Linecode=25_SAC_PC Length=0.075961 Units=m
New Line.LINE189_210 Bus1=189_205 Bus2=189_211 phases=3 Linecode=2c_.04 Length=0.14366 Units=m
New Line.LINE189_211 Bus1=189_206 Bus2=189_212 phases=3 Linecode=2c_.04 Length=0.66598 Units=m
New Line.LINE189_212 Bus1=189_207 Bus2=189_213 phases=3 Linecode=2c_.0225 Length=10.9375 Units=m
New Line.LINE189_213 Bus1=189_207 Bus2=189_214 phases=3 Linecode=4c_.2 Length=7.1056 Units=m
New Line.LINE189_214 Bus1=189_208 Bus2=189_215 phases=3 Linecode=25_SAC_PC Length=0.74502 Units=m
New Line.LINE189_215 Bus1=189_209 Bus2=189_216 phases=3 Linecode=25_SAC_PC Length=0.13323 Units=m
New Line.LINE189_216 Bus1=189_210 Bus2=189_217 phases=3 Linecode=25_SAC_PC Length=0.075585 Units=m
New Line.LINE189_217 Bus1=189_211 Bus2=189_218 phases=3 Linecode=2c_.04 Length=0.12126 Units=m
New Line.LINE189_218 Bus1=189_212 Bus2=189_219 phases=3 Linecode=2c_.04 Length=0.70913 Units=m
New Line.LINE189_219 Bus1=189_213 Bus2=189_220 phases=3 Linecode=2c_.0225 Length=0.40526 Units=m
New Line.LINE189_220 Bus1=189_214 Bus2=189_221 phases=3 Linecode=2c_.007_VIR Length=0.36954 Units=m
New Line.LINE189_221 Bus1=189_214 Bus2=189_222 phases=3 Linecode=4c_.2 Length=11.925 Units=m
New Line.LINE189_222 Bus1=189_215 Bus2=189_223 phases=3 Linecode=25_SAC_PC Length=0.1236 Units=m
New Line.LINE189_223 Bus1=189_216 Bus2=189_224 phases=3 Linecode=25_SAC_PC Length=0.68833 Units=m
New Line.LINE189_224 Bus1=189_217 Bus2=189_225 phases=3 Linecode=25_SAC_PC Length=0.88363 Units=m
New Line.LINE189_225 Bus1=189_218 Bus2=189_226 phases=3 Linecode=2c_.04 Length=0.12781 Units=m
New Line.LINE189_226 Bus1=189_219 Bus2=189_227 phases=3 Linecode=2c_.04 Length=0.74526 Units=m
New Line.LINE189_227 Bus1=189_220 Bus2=189_228 phases=3 Linecode=2c_.0225 Length=0.24824 Units=m
New Line.LINE189_228 Bus1=189_221 Bus2=189_229 phases=3 Linecode=2c_.007_VIR Length=0.22136 Units=m
New Line.LINE189_229 Bus1=189_222 Bus2=189_230 phases=3 Linecode=2c_.0225 Length=12.0611 Units=m
New Line.LINE189_230 Bus1=189_222 Bus2=189_231 phases=3 Linecode=4c_.2 Length=4.9811 Units=m
New Line.LINE189_231 Bus1=189_223 Bus2=189_232 phases=3 Linecode=25_SAC_PC Length=0.16412 Units=m
New Line.LINE189_232 Bus1=189_224 Bus2=189_233 phases=3 Linecode=25_SAC_PC Length=0.68845 Units=m
New Line.LINE189_233 Bus1=189_225 Bus2=189_234 phases=3 Linecode=25_SAC_PC Length=0.049193 Units=m
New Line.LINE189_234 Bus1=189_226 Bus2=189_235 phases=3 Linecode=2c_.04 Length=0.12644 Units=m
New Line.LINE189_235 Bus1=189_227 Bus2=189_236 phases=3 Linecode=2c_.04 Length=0.56649 Units=m
New Line.LINE189_236 Bus1=189_228 Bus2=189_237 phases=3 Linecode=2c_.0225 Length=0.21276 Units=m
New Line.LINE189_237 Bus1=189_229 Bus2=189_238 phases=3 Linecode=2c_.007_VIR Length=0.25219 Units=m
New Line.LINE189_238 Bus1=189_230 Bus2=189_239 phases=3 Linecode=2c_.0225 Length=0.24614 Units=m
New Line.LINE189_239 Bus1=189_231 Bus2=189_240 phases=3 Linecode=4c_.2 Length=0.2663 Units=m
New Line.LINE189_240 Bus1=189_231 Bus2=189_241 phases=3 Linecode=4c_.2 Length=6.701 Units=m
New Line.LINE189_241 Bus1=189_232 Bus2=189_242 phases=3 Linecode=25_SAC_PC Length=0.21347 Units=m
New Line.LINE189_242 Bus1=189_233 Bus2=189_243 phases=3 Linecode=25_SAC_PC Length=0.048332 Units=m
New Line.LINE189_243 Bus1=189_234 Bus2=189_244 phases=3 Linecode=25_SAC_PC Length=0.048384 Units=m
New Line.LINE189_244 Bus1=189_235 Bus2=189_245 phases=3 Linecode=2c_.04 Length=0.139 Units=m
New Line.LINE189_245 Bus1=189_236 Bus2=189_246 phases=3 Linecode=2c_.04 Length=0.65798 Units=m
New Line.LINE189_246 Bus1=189_237 Bus2=189_247 phases=3 Linecode=2c_.0225 Length=0.20693 Units=m
New Line.LINE189_247 Bus1=189_238 Bus2=189_248 phases=3 Linecode=2c_.007_VIR Length=0.92605 Units=m
New Line.LINE189_248 Bus1=189_239 Bus2=189_249 phases=3 Linecode=2c_.0225 Length=0.15148 Units=m
New Line.LINE189_249 Bus1=189_240 Bus2=189_250 phases=3 Linecode=4c_.2 Length=0.113 Units=m
New Line.LINE189_250 Bus1=189_241 Bus2=189_251 phases=3 Linecode=4_XC Length=0.4947 Units=m
New Line.LINE189_251 Bus1=189_241 Bus2=189_252 phases=3 Linecode=4c_.2 Length=0.21918 Units=m
New Line.LINE189_252 Bus1=189_242 Bus2=189_253 phases=3 Linecode=25_SAC_PC Length=0.21902 Units=m
New Line.LINE189_253 Bus1=189_243 Bus2=189_254 phases=3 Linecode=25_SAC_PC Length=0.04973 Units=m
New Line.LINE189_254 Bus1=189_244 Bus2=189_255 phases=3 Linecode=25_SAC_PC Length=0.049366 Units=m
New Line.LINE189_255 Bus1=189_245 Bus2=189_256 phases=3 Linecode=2c_.04 Length=0.144 Units=m
New Line.LINE189_256 Bus1=189_246 Bus2=189_257 phases=3 Linecode=2c_.04 Length=0.52761 Units=m
New Line.LINE189_257 Bus1=189_247 Bus2=189_258 phases=3 Linecode=2c_.0225 Length=0.24376 Units=m
New Line.LINE189_258 Bus1=189_249 Bus2=189_259 phases=3 Linecode=2c_.0225 Length=0.17182 Units=m
New Line.LINE189_259 Bus1=189_250 Bus2=189_260 phases=3 Linecode=4c_.2 Length=0.11804 Units=m
New Line.LINE189_260 Bus1=189_251 Bus2=189_261 phases=3 Linecode=4_XC Length=0.37917 Units=m
New Line.LINE189_261 Bus1=189_252 Bus2=189_262 phases=3 Linecode=4c_.2 Length=1.5464 Units=m
New Line.LINE189_262 Bus1=189_253 Bus2=189_263 phases=3 Linecode=25_SAC_PC Length=0.79521 Units=m
New Line.LINE189_263 Bus1=189_254 Bus2=189_264 phases=3 Linecode=25_SAC_PC Length=0.048259 Units=m
New Line.LINE189_264 Bus1=189_255 Bus2=189_265 phases=3 Linecode=25_SAC_PC Length=0.048094 Units=m
New Line.LINE189_265 Bus1=189_256 Bus2=189_266 phases=3 Linecode=2c_.04 Length=0.1114 Units=m
New Line.LINE189_266 Bus1=189_257 Bus2=189_267 phases=3 Linecode=2c_.04 Length=0.41381 Units=m
New Line.LINE189_267 Bus1=189_258 Bus2=189_268 phases=3 Linecode=2c_.0225 Length=0.19513 Units=m
New Line.LINE189_268 Bus1=189_259 Bus2=189_269 phases=3 Linecode=2c_.0225 Length=0.17011 Units=m
New Line.LINE189_269 Bus1=189_260 Bus2=189_270 phases=3 Linecode=4c_.2 Length=0.093744 Units=m
New Line.LINE189_270 Bus1=189_261 Bus2=189_271 phases=3 Linecode=4_XC Length=0.032893 Units=m
New Line.LINE189_271 Bus1=189_262 Bus2=189_272 phases=3 Linecode=4c_.2 Length=0.58972 Units=m
New Line.LINE189_272 Bus1=189_263 Bus2=189_273 phases=3 Linecode=25_SAC_PC Length=6.3798 Units=m
New Line.LINE189_273 Bus1=189_264 Bus2=189_274 phases=3 Linecode=25_SAC_PC Length=0.049092 Units=m
New Line.LINE189_274 Bus1=189_265 Bus2=189_275 phases=3 Linecode=25_SAC_PC Length=0.049031 Units=m
New Line.LINE189_275 Bus1=189_266 Bus2=189_276 phases=3 Linecode=2c_.04 Length=0.12656 Units=m
New Line.LINE189_276 Bus1=189_267 Bus2=189_277 phases=3 Linecode=2c_.04 Length=0.4579 Units=m
New Line.LINE189_277 Bus1=189_268 Bus2=189_278 phases=3 Linecode=2c_.0225 Length=0.21792 Units=m
New Line.LINE189_278 Bus1=189_269 Bus2=189_279 phases=3 Linecode=2c_.0225 Length=0.16033 Units=m
New Line.LINE189_279 Bus1=189_270 Bus2=189_280 phases=3 Linecode=4c_.2 Length=0.13124 Units=m
New Line.LINE189_280 Bus1=189_271 Bus2=189_281 phases=3 Linecode=4_XC Length=0.033241 Units=m
New Line.LINE189_281 Bus1=189_272 Bus2=189_282 phases=3 Linecode=4c_.2 Length=0.39062 Units=m
New Line.LINE189_282 Bus1=189_274 Bus2=189_283 phases=3 Linecode=25_SAC_PC Length=0.049477 Units=m
New Line.LINE189_283 Bus1=189_275 Bus2=189_284 phases=3 Linecode=25_SAC_PC Length=0.048846 Units=m
New Line.LINE189_284 Bus1=189_276 Bus2=189_285 phases=3 Linecode=2c_.04 Length=0.4868 Units=m
New Line.LINE189_285 Bus1=189_277 Bus2=189_286 phases=3 Linecode=2c_.04 Length=0.59144 Units=m
New Line.LINE189_286 Bus1=189_278 Bus2=189_287 phases=3 Linecode=2c_.0225 Length=0.91421 Units=m
New Line.LINE189_287 Bus1=189_279 Bus2=189_288 phases=3 Linecode=2c_.0225 Length=0.19338 Units=m
New Line.LINE189_288 Bus1=189_280 Bus2=189_289 phases=3 Linecode=4c_.2 Length=0.15127 Units=m
New Line.LINE189_289 Bus1=189_281 Bus2=189_290 phases=3 Linecode=4_XC Length=0.03306 Units=m
New Line.LINE189_290 Bus1=189_282 Bus2=189_291 phases=3 Linecode=4c_.2 Length=0.49192 Units=m
New Line.LINE189_291 Bus1=189_283 Bus2=189_292 phases=3 Linecode=25_SAC_PC Length=0.048847 Units=m
New Line.LINE189_292 Bus1=189_284 Bus2=189_293 phases=3 Linecode=25_SAC_PC Length=0.099766 Units=m
New Line.LINE189_293 Bus1=189_285 Bus2=189_294 phases=3 Linecode=2c_.04 Length=6.344 Units=m
New Line.LINE189_294 Bus1=189_285 Bus2=189_295 phases=3 Linecode=2c_.04 Length=2.3149 Units=m
New Line.LINE189_295 Bus1=189_286 Bus2=189_296 phases=3 Linecode=2c_.04 Length=0.65139 Units=m
New Line.LINE189_296 Bus1=189_287 Bus2=189_297 phases=3 Linecode=2c_.0225 Length=1.0377 Units=m
New Line.LINE189_297 Bus1=189_287 Bus2=189_298 phases=3 Linecode=2c_.04 Length=3.8303 Units=m
New Line.LINE189_298 Bus1=189_288 Bus2=189_299 phases=3 Linecode=2c_.0225 Length=0.19676 Units=m
New Line.LINE189_299 Bus1=189_289 Bus2=189_300 phases=3 Linecode=4c_.2 Length=0.14418 Units=m
New Line.LINE189_300 Bus1=189_290 Bus2=189_301 phases=3 Linecode=4_XC Length=0.032016 Units=m
New Line.LINE189_301 Bus1=189_291 Bus2=189_302 phases=3 Linecode=4c_.2 Length=0.42879 Units=m
New Line.LINE189_302 Bus1=189_292 Bus2=189_303 phases=3 Linecode=25_SAC_PC Length=1.0007 Units=m
New Line.LINE189_303 Bus1=189_293 Bus2=189_304 phases=3 Linecode=25_SAC_PC Length=0.86736 Units=m
New Line.LINE189_304 Bus1=189_294 Bus2=189_305 phases=3 Linecode=2c_.04 Length=0.79092 Units=m
New Line.LINE189_305 Bus1=189_296 Bus2=189_306 phases=3 Linecode=2c_.04 Length=0.4107 Units=m
New Line.LINE189_306 Bus1=189_297 Bus2=189_307 phases=3 Linecode=2c_.0225 Length=0.93744 Units=m
New Line.LINE189_307 Bus1=189_299 Bus2=189_308 phases=3 Linecode=2c_.0225 Length=0.20444 Units=m
New Line.LINE189_308 Bus1=189_300 Bus2=189_309 phases=3 Linecode=4c_.2 Length=0.14726 Units=m
New Line.LINE189_309 Bus1=189_301 Bus2=189_310 phases=3 Linecode=4_XC Length=0.033106 Units=m
New Line.LINE189_310 Bus1=189_302 Bus2=189_311 phases=3 Linecode=4c_.2 Length=0.58337 Units=m
New Line.LINE189_311 Bus1=189_303 Bus2=189_312 phases=3 Linecode=25_SAC_PC Length=0.74854 Units=m
New Line.LINE189_312 Bus1=189_304 Bus2=189_313 phases=3 Linecode=25_SAC_PC Length=1.1324 Units=m
New Line.LINE189_313 Bus1=189_305 Bus2=189_314 phases=3 Linecode=2c_.04 Length=0.61524 Units=m
New Line.LINE189_314 Bus1=189_306 Bus2=189_315 phases=3 Linecode=2c_.04 Length=0.51793 Units=m
New Line.LINE189_315 Bus1=189_307 Bus2=189_316 phases=3 Linecode=2c_.0225 Length=1.5242 Units=m
New Line.LINE189_316 Bus1=189_308 Bus2=189_317 phases=3 Linecode=2c_.0225 Length=0.11462 Units=m
New Line.LINE189_317 Bus1=189_309 Bus2=189_318 phases=3 Linecode=4c_.2 Length=0.1004 Units=m