New Load.LOAD189_1 Phases=1 Bus1=189_130.3 kV=0.23 kW=1 PF=0.95
New Load.LOAD189_2 Phases=1 Bus1=189_163.1 kV=0.23 kW=1 PF=0.95
New Load.LOAD189_3 Phases=1 Bus1=189_179.3 kV=0.23 kW=1 PF=0.95
New Load.LOAD189_4 Phases=1 Bus1=189_273.3 kV=0.23 kW=1 PF=0.95
New Load.LOAD189_5 Phases=1 Bus1=189_295.2 kV=0.23 kW=1 PF=0.95
New Load.LOAD189_6 Phases=1 Bus1=189_298.1 kV=0.23 kW=1 PF=0.95
New Load.LOAD189_7 Phases=1 Bus1=189_333.1 kV=0.23 kW=1 PF=0.95
New Load.LOAD189_8 Phases=1 Bus1=189_361.2 kV=0.23 kW=1 PF=0.95
New Load.LOAD189_9 Phases=1 Bus1=189_363.3 kV=0.23 kW=1 PF=0.95
New Load.LOAD189_10 Phases=1 Bus1=189_372.2 kV=0.23 kW=1 PF=0.95
New Load.LOAD189_11 Phases=1 Bus1=189_401.1 kV=0.23 kW=1 PF=0.95
New Load.LOAD189_12 Phases=1 Bus1=189_403.1 kV=0.23 kW=1 PF=0.95
New Load.LOAD189_13 Phases=1 Bus1=189_417.1 kV=0.23 kW=1 PF=0.95
New Load.LOAD189_14 Phases=1 Bus1=189_434.3 kV=0.23 kW=1 PF=0.95
New Load.LOAD189_15 Phases=1 Bus1=189_453.1 kV=0.23 kW=1 PF=0.95
New Load.LOAD189_16 Phases=1 Bus1=189_457.1 kV=0.23 kW=1 PF=0.95
New Load.LOAD189_17 Phases=1 Bus1=189_542.3 kV=0.23 kW=1 PF=0.95
New Load.LOAD189_18 Phases=1 Bus1=189_566.1 kV=0.23 kW=1 PF=0.95
New Load.LOAD189_19 Phases=1 Bus1=189_575.1 kV=0.23 kW=1 PF=0.95
New Load.LOAD189_20 Phases=1 Bus1=189_614.3 kV=0.23 kW=1 PF=0.95
New Load.LOAD189_21 Phases=1 Bus1=189_624.3 kV=0.23 kW=1 PF=0.95
New Load.LOAD189_22 Phases=1 Bus1=189_630.3 kV=0.23 kW=1 PF=0.95
New Load.LOAD189_23 Phases=1 Bus1=189_648.3 kV=0.23 kW=1 PF=0.95
New Load.LOAD189_24 Phases=1 Bus1=189_687.3 kV=0.23 kW=1 PF=0.95
New Load.LOAD189_25 Phases=1 Bus1=189_691.2 kV=0.23 kW=1 PF=0.95
New Load.LOAD189_26 Phases=1 Bus1=189_695.3 kV=0.23 kW=1 PF=0.95
New Load.LOAD189_27 Phases=1 Bus1=189_713.2 kV=0.23 kW=1 PF=0.95
New Load.LOAD189_28 Phases=1 Bus1=189_778.3 kV=0.23 kW=1 PF=0.95
New Load.LOAD189_29 Phases=1 Bus1=189_795.3 kV=0.23 kW=1 PF=0.95
New Load.LOAD189_30 Phases=1 Bus1=189_801.1 kV=0.23 kW=1 PF=0.95
New Load.LOAD189_31 Phases=1 Bus1=189_851.1 kV=0.23 kW=1 PF=0.95
New Load.LOAD189_32 Phases=1 Bus1=189_878.3 kV=0.23 kW=1 PF=0.95
New Load.LOAD189_33 Phases=1 Bus1=189_913.1 kV=0.23 kW=1 PF=0.95
New Load.LOAD189_34 Phases=1 Bus1=189_952.3 kV=0.23 kW=1 PF=0.95
New Load.LOAD189_35 Phases=1 Bus1=189_978.3 kV=0.23 kW=1 PF=0.95
New Load.LOAD189_36 Phases=1 Bus1=189_989.3 kV=0.23 kW=1 PF=0.95
New Load.LOAD189_37 Phases=1 Bus1=189_1021.2 kV=0.23 kW=1 PF=0.95
New Load.LOAD189_38 Phases=1 Bus1=189_1041.1 kV=0.23 kW=1 PF=0.95
New Load.LOAD189_39 Phases=1 Bus1=189_1057.1 kV=0.23 kW=1 PF=0.95
New Load.LOAD189_40 Phases=1 Bus1=189_1118.3 kV=0.23 kW=1 PF=0.95
New Load.LOAD189_41 Phases=1 Bus1=189_1122.2 kV=0.23 kW=1 PF=0.95
New Load.LOAD189_42 Phases=1 Bus1=189_1131.2 kV=0.23 kW=1 PF=0.95
New Load.LOAD189_43 Phases=1 Bus1=189_1173.2 kV=0.23 kW=1 PF=0.95
New Load.LOAD189_44 Phases=1 Bus1=189_1180.1 kV=0.23 kW=1 PF=0.95
New Load.LOAD189_45 Phases=1 Bus1=189_1181.3 kV=0.23 kW=1 PF=0.95
New Load.LOAD189_46 Phases=1 Bus1=189_1182.3 kV=0.23 kW=1 PF=0.95
New Load.LOAD189_47 Phases=1 Bus1=189_1191.3 kV=0.23 kW=1 PF=0.95
New Load.LOAD189_48 Phases=1 Bus1=189_1198.3 kV=0.23 kW=1 PF=0.95
New Load.LOAD189_49 Phases=1 Bus1=189_1203.2 kV=0.23 kW=1 PF=0.95
New Load.LOAD189_50 Phases=1 Bus1=189_1205.1 kV=0.23 kW=1 PF=0.95
