New Line.LINE150 Bus1=149 Bus2=151 phases=3 Linecode=3c_300_SAC_XC Length=3.3013 Units=m
New Line.LINE332 Bus1=331 Bus2=333 phases=3 Linecode=4c_.1 Length=6.9227 Units=m
New Line.LINE333 Bus1=331 Bus2=334 phases=3 Linecode=4c_.1 Length=3.9669 Units=m
New Line.LINE334 Bus1=333 Bus2=335 phases=3 Linecode=25_SAC_XC Length=4.0386 Units=m
New Line.LINE335 Bus1=333 Bus2=336 phases=3 Linecode=4c_.1 Length=2.8461 Units=m
New Line.LINE336 Bus1=334 Bus2=337 phases=3 Linecode=25_SAC_XC Length=3.5239 Units=m
New Line.LINE337 Bus1=334 Bus2=338 phases=3 Linecode=4c_.1 Length=4.5829 Units=m
New Line.LINE339 Bus1=336 Bus2=340 phases=3 Linecode=4c_.1 Length=1.9074 Units=m
New Line.LINE340 Bus1=336 Bus2=341 phases=3 Linecode=4c_.1 Length=0.70447 Units=m
New Line.LINE341 Bus1=336 Bus2=342 phases=3 Linecode=4c_.1 Length=2.422 Units=m
New Line.LINE342 Bus1=338 Bus2=343 phases=3 Linecode=25_SAC_XC Length=6.3521 Units=m
New Line.LINE345 Bus1=340 Bus2=346 phases=3 Linecode=25_SAC_XC Length=5.882 Units=m
New Line.LINE346 Bus1=340 Bus2=347 phases=3 Linecode=4c_.1 Length=0.93381 Units=m
New Line.LINE347 Bus1=341 Bus2=348 phases=3 Linecode=25_SAC_XC Length=3.3966 Units=m
New Line.LINE348 Bus1=342 Bus2=349 phases=3 Linecode=25_SAC_XC Length=2.9265 Units=m
New Line.LINE352 Bus1=347 Bus2=353 phases=3 Linecode=4c_.1 Length=2.023 Units=m
New Line.LINE353 Bus1=347 Bus2=354 phases=3 Linecode=4c_.1 Length=1.552 Units=m
New Line.LINE356 Bus1=353 Bus2=357 phases=3 Linecode=25_SAC_XC Length=6.3968 Units=m
New Line.LINE357 Bus1=353 Bus2=358 phases=3 Linecode=4c_.1 Length=2.4848 Units=m
New Line.LINE358 Bus1=354 Bus2=359 phases=3 Linecode=25_SAC_XC Length=3.2697 Units=m
New Line.LINE359 Bus1=354 Bus2=360 phases=3 Linecode=4c_.1 Length=6.0833 Units=m
New Line.LINE362 Bus1=358 Bus2=363 phases=3 Linecode=25_SAC_XC Length=3.7843 Units=m
New Line.LINE363 Bus1=358 Bus2=364 phases=3 Linecode=4c_.1 Length=0.47003 Units=m
New Line.LINE364 Bus1=360 Bus2=365 phases=3 Linecode=25_SAC_XC Length=3.3138 Units=m
New Line.LINE367 Bus1=364 Bus2=368 phases=3 Linecode=25_SAC_XC Length=6.9114 Units=m
New Line.LINE388 Bus1=387 Bus2=389 phases=3 Linecode=4c_.1 Length=2.5691 Units=m
New Line.LINE389 Bus1=387 Bus2=390 phases=3 Linecode=4c_.1 Length=5.709 Units=m
New Line.LINE390 Bus1=389 Bus2=391 phases=3 Linecode=25_SAC_XC Length=2.9421 Units=m
New Line.LINE391 Bus1=389 Bus2=392 phases=3 Linecode=4c_.1 Length=3.2644 Units=m
New Line.LINE392 Bus1=390 Bus2=393 phases=3 Linecode=25_SAC_XC Length=2.5641 Units=m
New Line.LINE394 Bus1=392 Bus2=395 phases=3 Linecode=4c_.1 Length=3.689 Units=m
New Line.LINE395 Bus1=392 Bus2=396 phases=3 Linecode=4c_.1 Length=0.49321 Units=m
New Line.LINE396 Bus1=395 Bus2=397 phases=3 Linecode=25_SAC_XC Length=4.1916 Units=m
New Line.LINE400 Bus1=396 Bus2=401 phases=3 Linecode=25_SAC_XC Length=5.688 Units=m
New Line.LINECmpd_0 Bus1=85 Bus2=115 phases=3 Linecode=4c_300_SAC Length=11.37948 Units=m
New Line.LINECmpd_1 Bus1=151 Bus2=252 phases=3 Linecode=4c_.5_AS Length=91.422019 Units=m
New Line.LINECmpd_2 Bus1=292 Bus2=331 phases=3 Linecode=4c_.1 Length=10.50641 Units=m
New Line.LINECmpd_3 Bus1=48 Bus2=85 phases=3 Linecode=4c_.5 Length=120.804201 Units=m
New Line.LINECmpd_4 Bus1=115 Bus2=149 phases=3 Linecode=4c_.5_AS Length=22.13542 Units=m
New Line.LINECmpd_5 Bus1=360 Bus2=387 phases=3 Linecode=4c_.1 Length=6.60974 Units=m
New Line.LINECmpd_6 Bus1=252 Bus2=285 phases=3 Linecode=4c_.5 Length=54.28143 Units=m
New Line.LINECmpd_7 Bus1=1 Bus2=43 phases=3 Linecode=3c_300_SAC_XC Length=29.944417 Units=m
New Line.LINECmpd_8 Bus1=43 Bus2=48 phases=3 Linecode=4c_300_SAC Length=5.42745 Units=m
New Line.LINECmpd_9 Bus1=285 Bus2=292 phases=3 Linecode=95_SAC_XC Length=1.68297 Units=m
