New Line.LINE103_1 Bus1=103_1 Bus2=103_2 phases=3 Linecode=3c_300_SAC_XC Length=0.25077 Units=m
New Line.LINE103_2 Bus1=103_2 Bus2=103_3 phases=3 Linecode=3c_300_SAC_XC Length=0.051866 Units=m
New Line.LINE103_3 Bus1=103_3 Bus2=103_4 phases=3 Linecode=3c_300_SAC_XC Length=0.031065 Units=m
New Line.LINE103_4 Bus1=103_4 Bus2=103_5 phases=3 Linecode=3c_300_SAC_XC Length=0.0314 Units=m
New Line.LINE103_5 Bus1=103_5 Bus2=103_6 phases=3 Linecode=3c_300_SAC_XC Length=0.038601 Units=m
New Line.LINE103_6 Bus1=103_6 Bus2=103_7 phases=3 Linecode=3c_300_SAC_XC Length=0.056294 Units=m
New Line.LINE103_7 Bus1=103_7 Bus2=103_8 phases=3 Linecode=3c_300_SAC_XC Length=0.047424 Units=m
New Line.LINE103_8 Bus1=103_8 Bus2=103_9 phases=3 Linecode=3c_300_SAC_XC Length=0.047321 Units=m
New Line.LINE103_9 Bus1=103_9 Bus2=103_10 phases=3 Linecode=3c_300_SAC_XC Length=0.055698 Units=m
New Line.LINE103_10 Bus1=103_10 Bus2=103_11 phases=3 Linecode=3c_300_SAC_XC Length=0.034 Units=m
New Line.LINE103_11 Bus1=103_11 Bus2=103_12 phases=3 Linecode=3c_300_SAC_XC Length=0.08127 Units=m
New Line.LINE103_12 Bus1=103_12 Bus2=103_13 phases=3 Linecode=3c_300_SAC_XC Length=0.5174 Units=m
New Line.LINE103_13 Bus1=103_13 Bus2=103_14 phases=3 Linecode=3c_300_SAC_XC Length=0.26439 Units=m
New Line.LINE103_14 Bus1=103_14 Bus2=103_15 phases=3 Linecode=3c_300_SAC_XC Length=1.5261 Units=m
New Line.LINE103_15 Bus1=103_15 Bus2=103_16 phases=3 Linecode=3c_300_SAC_XC Length=0.069291 Units=m
New Line.LINE103_16 Bus1=103_16 Bus2=103_17 phases=3 Linecode=3c_300_SAC_XC Length=0.081411 Units=m
New Line.LINE103_17 Bus1=103_17 Bus2=103_18 phases=3 Linecode=3c_300_SAC_XC Length=0.061295 Units=m
New Line.LINE103_18 Bus1=103_18 Bus2=103_19 phases=3 Linecode=3c_300_SAC_XC Length=0.041869 Units=m
New Line.LINE103_19 Bus1=103_19 Bus2=103_20 phases=3 Linecode=3c_300_SAC_XC Length=0.099402 Units=m
New Line.LINE103_20 Bus1=103_20 Bus2=103_21 phases=3 Linecode=3c_300_SAC_XC Length=0.098839 Units=m
New Line.LINE103_21 Bus1=103_21 Bus2=103_22 phases=3 Linecode=3c_300_SAC_XC Length=0.099328 Units=m
New Line.LINE103_22 Bus1=103_22 Bus2=103_23 phases=3 Linecode=3c_300_SAC_XC Length=0.09985 Units=m
New Line.LINE103_23 Bus1=103_23 Bus2=103_24 phases=3 Linecode=3c_300_SAC_XC Length=0.099126 Units=m
New Line.LINE103_24 Bus1=103_24 Bus2=103_25 phases=3 Linecode=3c_300_SAC_XC Length=0.099247 Units=m
New Line.LINE103_25 Bus1=103_25 Bus2=103_26 phases=3 Linecode=3c_300_SAC_XC Length=0.53899 Units=m
New Line.LINE103_26 Bus1=103_26 Bus2=103_27 phases=3 Linecode=3c_300_SAC_XC Length=1.3641 Units=m
New Line.LINE103_27 Bus1=103_27 Bus2=103_28 phases=3 Linecode=3c_300_SAC_XC Length=2.0852 Units=m
New Line.LINE103_28 Bus1=103_28 Bus2=103_29 phases=3 Linecode=3c_300_SAC_XC Length=1.3633 Units=m
New Line.LINE103_29 Bus1=103_29 Bus2=103_30 phases=3 Linecode=3c_300_SAC_XC Length=1.0549 Units=m
New Line.LINE103_30 Bus1=103_30 Bus2=103_31 phases=3 Linecode=3c_300_SAC_XC Length=0.87671 Units=m
New Line.LINE103_31 Bus1=103_31 Bus2=103_32 phases=3 Linecode=3c_300_SAC_XC Length=0.40268 Units=m
New Line.LINE103_32 Bus1=103_32 Bus2=103_33 phases=3 Linecode=3c_300_SAC_XC Length=0.19676 Units=m
New Line.LINE103_33 Bus1=103_33 Bus2=103_34 phases=3 Linecode=3c_300_SAC_XC Length=3.2652 Units=m
New Line.LINE103_34 Bus1=103_34 Bus2=103_35 phases=3 Linecode=3c_300_SAC_XC Length=6.5935 Units=m
New Line.LINE103_35 Bus1=103_35 Bus2=103_36 phases=3 Linecode=3c_300_SAC_XC Length=0.99242 Units=m
New Line.LINE103_36 Bus1=103_36 Bus2=103_37 phases=3 Linecode=3c_300_SAC_XC Length=0.2614 Units=m
New Line.LINE103_37 Bus1=103_37 Bus2=103_38 phases=3 Linecode=3c_300_SAC_XC Length=0.24292 Units=m
New Line.LINE103_38 Bus1=103_38 Bus2=103_39 phases=3 Linecode=3c_300_SAC_XC Length=1.7197 Units=m
New Line.LINE103_39 Bus1=103_39 Bus2=103_40 phases=3 Linecode=3c_300_SAC_XC Length=1.5537 Units=m
New Line.LINE103_40 Bus1=103_40 Bus2=103_41 phases=3 Linecode=3c_300_SAC_XC Length=2.2715 Units=m
New Line.LINE103_41 Bus1=103_41 Bus2=103_42 phases=3 Linecode=3c_300_SAC_XC Length=1.0138 Units=m
New Line.LINE103_42 Bus1=103_42 Bus2=103_43 phases=3 Linecode=3c_300_SAC_XC Length=0.26438 Units=m
New Line.LINE103_43 Bus1=103_43 Bus2=103_44 phases=3 Linecode=4c_300_SAC Length=0.74316 Units=m
New Line.LINE103_44 Bus1=103_44 Bus2=103_45 phases=3 Linecode=4c_300_SAC Length=3.1371 Units=m
New Line.LINE103_45 Bus1=103_45 Bus2=103_46 phases=3 Linecode=4c_300_SAC Length=0.60093 Units=m
New Line.LINE103_46 Bus1=103_46 Bus2=103_47 phases=3 Linecode=4c_300_SAC Length=0.54027 Units=m
New Line.LINE103_47 Bus1=103_47 Bus2=103_48 phases=3 Linecode=4c_300_SAC Length=0.40599 Units=m
New Line.LINE103_48 Bus1=103_48 Bus2=103_49 phases=3 Linecode=4c_.5 Length=0.6109 Units=m
New Line.LINE103_49 Bus1=103_49 Bus2=103_50 phases=3 Linecode=4c_.5 Length=0.25371 Units=m
New Line.LINE103_50 Bus1=103_50 Bus2=103_51 phases=3 Linecode=4c_.5 Length=6.5347 Units=m
New Line.LINE103_51 Bus1=103_51 Bus2=103_52 phases=3 Linecode=4c_.5 Length=0.045309 Units=m
New Line.LINE103_52 Bus1=103_52 Bus2=103_53 phases=3 Linecode=4c_.5 Length=0.045222 Units=m
New Line.LINE103_53 Bus1=103_53 Bus2=103_54 phases=3 Linecode=4c_.5 Length=0.037483 Units=m
New Line.LINE103_54 Bus1=103_54 Bus2=103_55 phases=3 Linecode=4c_.5 Length=0.035467 Units=m
New Line.LINE103_55 Bus1=103_55 Bus2=103_56 phases=3 Linecode=4c_.5 Length=0.037485 Units=m
New Line.LINE103_56 Bus1=103_56 Bus2=103_57 phases=3 Linecode=4c_.5 Length=0.036124 Units=m
New Line.LINE103_57 Bus1=103_57 Bus2=103_58 phases=3 Linecode=4c_.5 Length=0.040261 Units=m
New Line.LINE103_58 Bus1=103_58 Bus2=103_59 phases=3 Linecode=4c_.5 Length=4.3024 Units=m
New Line.LINE103_59 Bus1=103_59 Bus2=103_60 phases=3 Linecode=4c_.5 Length=11.2475 Units=m
New Line.LINE103_60 Bus1=103_60 Bus2=103_61 phases=3 Linecode=4c_.5 Length=22.7178 Units=m
New Line.LINE103_61 Bus1=103_61 Bus2=103_62 phases=3 Linecode=4c_.5 Length=6.4214 Units=m
New Line.LINE103_62 Bus1=103_62 Bus2=103_63 phases=3 Linecode=4c_.5 Length=0.78067 Units=m
New Line.LINE103_63 Bus1=103_63 Bus2=103_64 phases=3 Linecode=4c_.5 Length=1.0662 Units=m
New Line.LINE103_64 Bus1=103_64 Bus2=103_65 phases=3 Linecode=4c_.5 Length=0.44761 Units=m
New Line.LINE103_65 Bus1=103_65 Bus2=103_66 phases=3 Linecode=4c_.5 Length=0.44842 Units=m
New Line.LINE103_66 Bus1=103_66 Bus2=103_67 phases=3 Linecode=4c_.5 Length=0.30219 Units=m
New Line.LINE103_67 Bus1=103_67 Bus2=103_68 phases=3 Linecode=4c_.5 Length=0.32244 Units=m
New Line.LINE103_68 Bus1=103_68 Bus2=103_69 phases=3 Linecode=4c_.5 Length=0.369 Units=m
New Line.LINE103_69 Bus1=103_69 Bus2=103_70 phases=3 Linecode=4c_.5 Length=0.26388 Units=m
New Line.LINE103_70 Bus1=103_70 Bus2=103_71 phases=3 Linecode=4c_.5 Length=0.46168 Units=m
New Line.LINE103_71 Bus1=103_71 Bus2=103_72 phases=3 Linecode=4c_.5 Length=2.5752 Units=m
New Line.LINE103_72 Bus1=103_72 Bus2=103_73 phases=3 Linecode=4c_.5 Length=2.5765 Units=m
New Line.LINE103_73 Bus1=103_73 Bus2=103_74 phases=3 Linecode=4c_.5 Length=10.8712 Units=m
New Line.LINE103_74 Bus1=103_74 Bus2=103_75 phases=3 Linecode=4c_.5 Length=10.8712 Units=m
New Line.LINE103_75 Bus1=103_75 Bus2=103_76 phases=3 Linecode=4c_.5 Length=0.92068 Units=m
New Line.LINE103_76 Bus1=103_76 Bus2=103_77 phases=3 Linecode=4c_.5 Length=4.2388 Units=m
New Line.LINE103_77 Bus1=103_77 Bus2=103_78 phases=3 Linecode=4c_.5 Length=0.45437 Units=m
New Line.LINE103_78 Bus1=103_78 Bus2=103_79 phases=3 Linecode=4c_.5 Length=1.5074 Units=m
New Line.LINE103_79 Bus1=103_79 Bus2=103_80 phases=3 Linecode=4c_.5 Length=0.66921 Units=m
New Line.LINE103_80 Bus1=103_80 Bus2=103_81 phases=3 Linecode=4c_.5 Length=2.9181 Units=m
New Line.LINE103_81 Bus1=103_81 Bus2=103_82 phases=3 Linecode=4c_.5 Length=20.7134 Units=m
New Line.LINE103_82 Bus1=103_82 Bus2=103_83 phases=3 Linecode=4c_.5 Length=3.8079 Units=m
New Line.LINE103_83 Bus1=103_83 Bus2=103_84 phases=3 Linecode=4c_.5 Length=0.25589 Units=m
New Line.LINE103_84 Bus1=103_84 Bus2=103_85 phases=3 Linecode=4c_.5 Length=1.5965 Units=m
New Line.LINE103_85 Bus1=103_85 Bus2=103_86 phases=3 Linecode=4c_300_SAC Length=0.59994 Units=m
New Line.LINE103_86 Bus1=103_86 Bus2=103_87 phases=3 Linecode=4c_300_SAC Length=0.36225 Units=m
New Line.LINE103_87 Bus1=103_87 Bus2=103_88 phases=3 Linecode=4c_300_SAC Length=0.159 Units=m
New Line.LINE103_88 Bus1=103_88 Bus2=103_89 phases=3 Linecode=4c_300_SAC Length=0.19657 Units=m
New Line.LINE103_89 Bus1=103_89 Bus2=103_90 phases=3 Linecode=4c_300_SAC Length=0.22557 Units=m
New Line.LINE103_90 Bus1=103_90 Bus2=103_91 phases=3 Linecode=4c_300_SAC Length=0.30496 Units=m
New Line.LINE103_91 Bus1=103_91 Bus2=103_92 phases=3 Linecode=4c_300_SAC Length=0.36381 Units=m
New Line.LINE103_92 Bus1=103_92 Bus2=103_93 phases=3 Linecode=4c_300_SAC Length=0.27965 Units=m
New Line.LINE103_93 Bus1=103_93 Bus2=103_94 phases=3 Linecode=4c_300_SAC Length=0.60763 Units=m
New Line.LINE103_94 Bus1=103_94 Bus2=103_95 phases=3 Linecode=4c_300_SAC Length=0.42043 Units=m
New Line.LINE103_95 Bus1=103_95 Bus2=103_96 phases=3 Linecode=4c_.25 Length=0.83323 Units=m
New Line.LINE103_96 Bus1=103_95 Bus2=103_97 phases=3 Linecode=4c_300_SAC Length=1.1378 Units=m
New Line.LINE103_97 Bus1=103_96 Bus2=103_98 phases=3 Linecode=4c_.25 Length=0.26878 Units=m
New Line.LINE103_98 Bus1=103_97 Bus2=103_99 phases=3 Linecode=4c_300_SAC Length=1.7082 Units=m
New Line.LINE103_99 Bus1=103_98 Bus2=103_100 phases=3 Linecode=4c_.25 Length=0.25495 Units=m
New Line.LINE103_100 Bus1=103_99 Bus2=103_101 phases=3 Linecode=4c_300_SAC Length=2.0044 Units=m
New Line.LINE103_101 Bus1=103_100 Bus2=103_102 phases=3 Linecode=4c_.25 Length=4.6951 Units=m
New Line.LINE103_102 Bus1=103_101 Bus2=103_103 phases=3 Linecode=4c_300_SAC Length=0.72978 Units=m
New Line.LINE103_103 Bus1=103_102 Bus2=103_104 phases=3 Linecode=4c_.25 Length=0.45113 Units=m
New Line.LINE103_104 Bus1=103_103 Bus2=103_105 phases=3 Linecode=4c_300_SAC Length=0.43423 Units=m
New Line.LINE103_105 Bus1=103_104 Bus2=103_106 phases=3 Linecode=4c_.25 Length=0.6534 Units=m
New Line.LINE103_106 Bus1=103_105 Bus2=103_107 phases=3 Linecode=4c_300_SAC Length=0.46207 Units=m
New Line.LINE103_107 Bus1=103_106 Bus2=103_108 phases=3 Linecode=4c_.25 Length=1.7674 Units=m
New Line.LINE103_108 Bus1=103_107 Bus2=103_109 phases=3 Linecode=4c_300_SAC Length=0.31717 Units=m
New Line.LINE103_109 Bus1=103_108 Bus2=103_110 phases=3 Linecode=4c_.25 Length=1.7626 Units=m
New Line.LINE103_110 Bus1=103_109 Bus2=103_111 phases=3 Linecode=4c_300_SAC Length=0.32389 Units=m
New Line.LINE103_111 Bus1=103_110 Bus2=103_112 phases=3 Linecode=4c_.25 Length=1.4244 Units=m
New Line.LINE103_112 Bus1=103_111 Bus2=103_113 phases=3 Linecode=4c_300_SAC Length=0.48093 Units=m
New Line.LINE103_113 Bus1=103_112 Bus2=103_114 phases=3 Linecode=4c_.25 Length=1.8895 Units=m
New Line.LINE103_114 Bus1=103_113 Bus2=103_115 phases=3 Linecode=4c_300_SAC Length=0.2612 Units=m
New Line.LINE103_115 Bus1=103_114 Bus2=103_116 phases=3 Linecode=4c_.25 Length=1.4025 Units=m
New Line.LINE103_116 Bus1=103_115 Bus2=103_117 phases=3 Linecode=4c_.5_AS Length=0.502 Units=m
New Line.LINE103_117 Bus1=103_116 Bus2=103_118 phases=3 Linecode=4c_.25 Length=1.2329 Units=m
New Line.LINE103_118 Bus1=103_117 Bus2=103_119 phases=3 Linecode=4c_.5_AS Length=0.47777 Units=m
New Line.LINE103_119 Bus1=103_118 Bus2=103_120 phases=3 Linecode=4c_.25 Length=1.8319 Units=m
New Line.LINE103_120 Bus1=103_119 Bus2=103_121 phases=3 Linecode=4c_.5_AS Length=0.34083 Units=m
New Line.LINE103_121 Bus1=103_120 Bus2=103_122 phases=3 Linecode=4c_.25 Length=1.152 Units=m
New Line.LINE103_122 Bus1=103_121 Bus2=103_123 phases=3 Linecode=4c_.5_AS Length=0.43246 Units=m
New Line.LINE103_123 Bus1=103_122 Bus2=103_124 phases=3 Linecode=4c_.25 Length=1.4754 Units=m
New Line.LINE103_124 Bus1=103_123 Bus2=103_125 phases=3 Linecode=4c_.5_AS Length=0.46944 Units=m
New Line.LINE103_125 Bus1=103_124 Bus2=103_126 phases=3 Linecode=4c_.25 Length=1.3934 Units=m
New Line.LINE103_126 Bus1=103_125 Bus2=103_127 phases=3 Linecode=4c_.5_AS Length=2.9141 Units=m
New Line.LINE103_127 Bus1=103_126 Bus2=103_128 phases=3 Linecode=4c_.25 Length=1.975 Units=m
New Line.LINE103_128 Bus1=103_127 Bus2=103_129 phases=3 Linecode=4c_.5_AS Length=0.87133 Units=m
New Line.LINE103_129 Bus1=103_128 Bus2=103_130 phases=3 Linecode=4c_.25 Length=2.4901 Units=m
New Line.LINE103_130 Bus1=103_129 Bus2=103_131 phases=3 Linecode=4c_.5_AS Length=0.22777 Units=m
New Line.LINE103_131 Bus1=103_130 Bus2=103_132 phases=3 Linecode=4c_.25 Length=3.415 Units=m
New Line.LINE103_132 Bus1=103_131 Bus2=103_133 phases=3 Linecode=4c_.5_AS Length=0.37041 Units=m
New Line.LINE103_133 Bus1=103_132 Bus2=103_134 phases=3 Linecode=4c_.25 Length=4.0618 Units=m
New Line.LINE103_134 Bus1=103_133 Bus2=103_135 phases=3 Linecode=4c_.5_AS Length=0.7135 Units=m
New Line.LINE103_135 Bus1=103_134 Bus2=103_136 phases=3 Linecode=4c_.25 Length=4.5518 Units=m
New Line.LINE103_136 Bus1=103_135 Bus2=103_137 phases=3 Linecode=4c_.5_AS Length=12.584 Units=m
New Line.LINE103_137 Bus1=103_136 Bus2=103_138 phases=3 Linecode=4c_.3 Length=1.9355 Units=m
New Line.LINE103_138 Bus1=103_137 Bus2=103_139 phases=3 Linecode=4c_.5_AS Length=0.56704 Units=m
New Line.LINE103_139 Bus1=103_138 Bus2=103_140 phases=3 Linecode=4c_.3 Length=1.289 Units=m
New Line.LINE103_140 Bus1=103_139 Bus2=103_141 phases=3 Linecode=4c_.5_AS Length=0.28319 Units=m
New Line.LINE103_141 Bus1=103_140 Bus2=103_142 phases=3 Linecode=4c_.3 Length=1.3113 Units=m
New Line.LINE103_142 Bus1=103_141 Bus2=103_143 phases=3 Linecode=4c_.5_AS Length=1.1525 Units=m
New Line.LINE103_143 Bus1=103_142 Bus2=103_144 phases=3 Linecode=4c_.3 Length=2.2689 Units=m
New Line.LINE103_144 Bus1=103_143 Bus2=103_145 phases=3 Linecode=4c_.5_AS Length=0.084758 Units=m
New Line.LINE103_145 Bus1=103_144 Bus2=103_146 phases=3 Linecode=4c_.3 Length=3.3182 Units=m
New Line.LINE103_146 Bus1=103_145 Bus2=103_147 phases=3 Linecode=4c_.5_AS Length=0.074108 Units=m
New Line.LINE103_147 Bus1=103_146 Bus2=103_148 phases=3 Linecode=4c_.3 Length=0.48591 Units=m
New Line.LINE103_148 Bus1=103_147 Bus2=103_149 phases=3 Linecode=4c_.5_AS Length=0.070214 Units=m
New Line.LINE103_149 Bus1=103_148 Bus2=103_150 phases=3 Linecode=4c_.3 Length=0.27539 Units=m
New Line.LINE103_150 Bus1=103_149 Bus2=103_151 phases=3 Linecode=3c_300_SAC_XC Length=3.3013 Units=m
New Line.LINE103_151 Bus1=103_150 Bus2=103_152 phases=3 Linecode=4c_.3 Length=0.15838 Units=m
New Line.LINE103_152 Bus1=103_151 Bus2=103_153 phases=3 Linecode=4c_.5_AS Length=0.84037 Units=m
New Line.LINE103_153 Bus1=103_151 Bus2=103_154 phases=3 Linecode=4c_.5_AS Length=0.84037 Units=m
New Line.LINE103_154 Bus1=103_152 Bus2=103_155 phases=3 Linecode=4c_.3 Length=0.12808 Units=m
New Line.LINE103_155 Bus1=103_153 Bus2=103_156 phases=3 Linecode=4c_.5_AS Length=17.3226 Units=m
New Line.LINE103_156 Bus1=103_153 Bus2=103_157 phases=3 Linecode=4c_.5_AS Length=17.3226 Units=m
New Line.LINE103_157 Bus1=103_155 Bus2=103_158 phases=3 Linecode=4c_.3 Length=0.10955 Units=m
New Line.LINE103_158 Bus1=103_156 Bus2=103_159 phases=3 Linecode=4c_.5_AS Length=1.4803 Units=m
New Line.LINE103_159 Bus1=103_156 Bus2=103_160 phases=3 Linecode=4c_.5_AS Length=1.4803 Units=m
New Line.LINE103_160 Bus1=103_158 Bus2=103_161 phases=3 Linecode=4c_.3 Length=0.13118 Units=m
New Line.LINE103_161 Bus1=103_159 Bus2=103_162 phases=3 Linecode=4c_.5_AS Length=1.6302 Units=m
New Line.LINE103_162 Bus1=103_159 Bus2=103_163 phases=3 Linecode=4c_.5_AS Length=1.6302 Units=m
New Line.LINE103_163 Bus1=103_161 Bus2=103_164 phases=3 Linecode=4c_.3 Length=2.6768 Units=m
New Line.LINE103_164 Bus1=103_162 Bus2=103_165 phases=3 Linecode=4c_.5_AS Length=1.4719 Units=m
New Line.LINE103_165 Bus1=103_162 Bus2=103_166 phases=3 Linecode=4c_.5_AS Length=1.4719 Units=m
New Line.LINE103_166 Bus1=103_164 Bus2=103_167 phases=3 Linecode=4c_.3 Length=3.3721 Units=m
New Line.LINE103_167 Bus1=103_165 Bus2=103_168 phases=3 Linecode=4c_.5_AS Length=0.31023 Units=m
New Line.LINE103_168 Bus1=103_165 Bus2=103_169 phases=3 Linecode=4c_.5_AS Length=0.31023 Units=m
New Line.LINE103_169 Bus1=103_167 Bus2=103_170 phases=3 Linecode=4c_.3 Length=0.047435 Units=m
New Line.LINE103_170 Bus1=103_168 Bus2=103_171 phases=3 Linecode=4c_.5_AS Length=0.3592 Units=m
New Line.LINE103_171 Bus1=103_168 Bus2=103_172 phases=3 Linecode=4c_.5_AS Length=0.3592 Units=m
New Line.LINE103_172 Bus1=103_170 Bus2=103_173 phases=3 Linecode=4c_.3 Length=0.050917 Units=m
New Line.LINE103_173 Bus1=103_171 Bus2=103_174 phases=3 Linecode=4c_.5_AS Length=2.7981 Units=m
New Line.LINE103_174 Bus1=103_171 Bus2=103_175 phases=3 Linecode=4c_.5_AS Length=2.7981 Units=m
New Line.LINE103_175 Bus1=103_173 Bus2=103_176 phases=3 Linecode=4c_.3 Length=0.28311 Units=m
New Line.LINE103_176 Bus1=103_174 Bus2=103_177 phases=3 Linecode=4c_.5_AS Length=7.8694 Units=m
New Line.LINE103_177 Bus1=103_174 Bus2=103_178 phases=3 Linecode=4c_.5_AS Length=7.8694 Units=m
New Line.LINE103_178 Bus1=103_176 Bus2=103_179 phases=3 Linecode=4c_.3 Length=0.060209 Units=m
New Line.LINE103_179 Bus1=103_177 Bus2=103_180 phases=3 Linecode=4c_.5_AS Length=3.3072 Units=m
New Line.LINE103_180 Bus1=103_177 Bus2=103_181 phases=3 Linecode=4c_.5_AS Length=3.3072 Units=m
New Line.LINE103_181 Bus1=103_179 Bus2=103_182 phases=3 Linecode=4c_.3 Length=0.055946 Units=m
New Line.LINE103_182 Bus1=103_180 Bus2=103_183 phases=3 Linecode=4c_.5_AS Length=11.9754 Units=m
New Line.LINE103_183 Bus1=103_180 Bus2=103_184 phases=3 Linecode=4c_.5_AS Length=11.9754 Units=m
New Line.LINE103_184 Bus1=103_182 Bus2=103_185 phases=3 Linecode=4c_.3 Length=0.053758 Units=m
New Line.LINE103_185 Bus1=103_183 Bus2=103_186 phases=3 Linecode=4c_.5_AS Length=0.054589 Units=m
New Line.LINE103_186 Bus1=103_183 Bus2=103_187 phases=3 Linecode=4c_.5_AS Length=0.054589 Units=m
New Line.LINE103_187 Bus1=103_185 Bus2=103_188 phases=3 Linecode=4c_.3 Length=0.050636 Units=m
New Line.LINE103_188 Bus1=103_186 Bus2=103_189 phases=3 Linecode=4c_.5_AS Length=1.2522 Units=m
New Line.LINE103_189 Bus1=103_186 Bus2=103_190 phases=3 Linecode=4c_.5_AS Length=1.2522 Units=m
New Line.LINE103_190 Bus1=103_188 Bus2=103_191 phases=3 Linecode=4c_.3 Length=0.37144 Units=m
New Line.LINE103_191 Bus1=103_189 Bus2=103_192 phases=3 Linecode=4c_.5_AS Length=1.6113 Units=m
New Line.LINE103_192 Bus1=103_189 Bus2=103_193 phases=3 Linecode=4c_.5_AS Length=1.6113 Units=m
New Line.LINE103_193 Bus1=103_191 Bus2=103_194 phases=3 Linecode=4c_.3 Length=0.037 Units=m
New Line.LINE103_194 Bus1=103_192 Bus2=103_195 phases=3 Linecode=4c_.5_AS Length=1.1385 Units=m
New Line.LINE103_195 Bus1=103_192 Bus2=103_196 phases=3 Linecode=4c_.5_AS Length=1.1385 Units=m
New Line.LINE103_196 Bus1=103_194 Bus2=103_197 phases=3 Linecode=4c_.3 Length=0.033241 Units=m
New Line.LINE103_197 Bus1=103_195 Bus2=103_198 phases=3 Linecode=4c_.5_AS Length=0.89862 Units=m
New Line.LINE103_198 Bus1=103_195 Bus2=103_199 phases=3 Linecode=4c_.5_AS Length=0.89862 Units=m
New Line.LINE103_199 Bus1=103_197 Bus2=103_200 phases=3 Linecode=4c_.3 Length=0.058242 Units=m
New Line.LINE103_200 Bus1=103_198 Bus2=103_201 phases=3 Linecode=4c_.5_AS Length=0.30414 Units=m
New Line.LINE103_201 Bus1=103_200 Bus2=103_202 phases=3 Linecode=4c_.3 Length=0.048754 Units=m
New Line.LINE103_202 Bus1=103_201 Bus2=103_203 phases=3 Linecode=4c_.5_AS Length=0.23265 Units=m
New Line.LINE103_203 Bus1=103_202 Bus2=103_204 phases=3 Linecode=4c_.3 Length=0.056612 Units=m
New Line.LINE103_204 Bus1=103_203 Bus2=103_205 phases=3 Linecode=4c_.5_AS Length=0.17814 Units=m
New Line.LINE103_205 Bus1=103_204 Bus2=103_206 phases=3 Linecode=4c_.3 Length=0.84587 Units=m
New Line.LINE103_206 Bus1=103_205 Bus2=103_207 phases=3 Linecode=4c_.5_AS Length=0.10512 Units=m
New Line.LINE103_207 Bus1=103_206 Bus2=103_208 phases=3 Linecode=4c_.3 Length=0.043828 Units=m
New Line.LINE103_208 Bus1=103_207 Bus2=103_209 phases=3 Linecode=4c_.5_AS Length=0.16498 Units=m
New Line.LINE103_209 Bus1=103_208 Bus2=103_210 phases=3 Linecode=4c_.3 Length=0.07209 Units=m
New Line.LINE103_210 Bus1=103_209 Bus2=103_211 phases=3 Linecode=4c_.5_AS Length=0.1253 Units=m
New Line.LINE103_211 Bus1=103_210 Bus2=103_212 phases=3 Linecode=4c_.3 Length=0.066287 Units=m
New Line.LINE103_212 Bus1=103_211 Bus2=103_213 phases=3 Linecode=4c_.5_AS Length=0.42321 Units=m
New Line.LINE103_213 Bus1=103_211 Bus2=103_214 phases=3 Linecode=4c_.5_AS Length=0.42321 Units=m
New Line.LINE103_214 Bus1=103_211 Bus2=103_215 phases=3 Linecode=4c_.5 Length=0.61565 Units=m
New Line.LINE103_215 Bus1=103_212 Bus2=103_216 phases=3 Linecode=4c_.3 Length=0.076059 Units=m
New Line.LINE103_216 Bus1=103_213 Bus2=103_217 phases=3 Linecode=4c_.5_AS Length=0.51914 Units=m
New Line.LINE103_217 Bus1=103_213 Bus2=103_218 phases=3 Linecode=4c_.5_AS Length=0.51914 Units=m
New Line.LINE103_218 Bus1=103_215 Bus2=103_219 phases=3 Linecode=4c_.5 Length=0.48892 Units=m
New Line.LINE103_219 Bus1=103_216 Bus2=103_220 phases=3 Linecode=4c_.3 Length=0.07433 Units=m
New Line.LINE103_220 Bus1=103_217 Bus2=103_221 phases=3 Linecode=4c_.5_AS Length=0.76867 Units=m
New Line.LINE103_221 Bus1=103_217 Bus2=103_222 phases=3 Linecode=4c_.5_AS Length=0.76867 Units=m
New Line.LINE103_222 Bus1=103_219 Bus2=103_223 phases=3 Linecode=4c_.5 Length=0.42228 Units=m
New Line.LINE103_223 Bus1=103_220 Bus2=103_224 phases=3 Linecode=4c_.3 Length=0.081302 Units=m
New Line.LINE103_224 Bus1=103_221 Bus2=103_225 phases=3 Linecode=4c_.5_AS Length=0.96127 Units=m
New Line.LINE103_225 Bus1=103_221 Bus2=103_226 phases=3 Linecode=4c_.5_AS Length=0.96127 Units=m
New Line.LINE103_226 Bus1=103_223 Bus2=103_227 phases=3 Linecode=4c_.5 Length=0.41541 Units=m
New Line.LINE103_227 Bus1=103_224 Bus2=103_228 phases=3 Linecode=4c_.3 Length=0.36771 Units=m
New Line.LINE103_228 Bus1=103_225 Bus2=103_229 phases=3 Linecode=4c_.5_AS Length=1.2187 Units=m
New Line.LINE103_229 Bus1=103_225 Bus2=103_230 phases=3 Linecode=4c_.5_AS Length=1.2187 Units=m
New Line.LINE103_230 Bus1=103_227 Bus2=103_231 phases=3 Linecode=4c_.5 Length=0.42321 Units=m
New Line.LINE103_231 Bus1=103_229 Bus2=103_232 phases=3 Linecode=4c_.5_AS Length=4.7744 Units=m
New Line.LINE103_232 Bus1=103_229 Bus2=103_233 phases=3 Linecode=4c_.5_AS Length=4.7744 Units=m
New Line.LINE103_233 Bus1=103_231 Bus2=103_234 phases=3 Linecode=4c_.5 Length=0.57394 Units=m
New Line.LINE103_234 Bus1=103_232 Bus2=103_235 phases=3 Linecode=4c_.5_AS Length=5.3565 Units=m
New Line.LINE103_235 Bus1=103_232 Bus2=103_236 phases=3 Linecode=4c_.5_AS Length=5.3565 Units=m
New Line.LINE103_236 Bus1=103_234 Bus2=103_237 phases=3 Linecode=4c_.5 Length=0.49758 Units=m
New Line.LINE103_237 Bus1=103_235 Bus2=103_238 phases=3 Linecode=4c_.5_AS Length=5.1507 Units=m
New Line.LINE103_238 Bus1=103_235 Bus2=103_239 phases=3 Linecode=4c_.5_AS Length=5.1507 Units=m
New Line.LINE103_239 Bus1=103_237 Bus2=103_240 phases=3 Linecode=4c_.5 Length=0.21279 Units=m
New Line.LINE103_240 Bus1=103_238 Bus2=103_241 phases=3 Linecode=4c_.5_AS Length=7.9161 Units=m
New Line.LINE103_241 Bus1=103_238 Bus2=103_242 phases=3 Linecode=4c_.5_AS Length=7.9161 Units=m
New Line.LINE103_242 Bus1=103_240 Bus2=103_243 phases=3 Linecode=4c_.5 Length=0.279 Units=m
New Line.LINE103_243 Bus1=103_241 Bus2=103_244 phases=3 Linecode=4c_.5_AS Length=2.7981 Units=m
New Line.LINE103_244 Bus1=103_241 Bus2=103_245 phases=3 Linecode=4c_.5_AS Length=2.7981 Units=m
New Line.LINE103_245 Bus1=103_243 Bus2=103_246 phases=3 Linecode=4c_.5 Length=6.8785 Units=m
New Line.LINE103_246 Bus1=103_244 Bus2=103_247 phases=3 Linecode=4c_.5_AS Length=0.39478 Units=m
New Line.LINE103_247 Bus1=103_244 Bus2=103_248 phases=3 Linecode=4c_.5_AS Length=0.39478 Units=m
New Line.LINE103_248 Bus1=103_246 Bus2=103_249 phases=3 Linecode=240_SAC_XC Length=1.5254 Units=m
New Line.LINE103_249 Bus1=103_247 Bus2=103_250 phases=3 Linecode=4c_.5_AS Length=0.73081 Units=m
New Line.LINE103_250 Bus1=103_247 Bus2=103_251 phases=3 Linecode=4c_.5_AS Length=0.73081 Units=m
New Line.LINE103_251 Bus1=103_250 Bus2=103_252 phases=3 Linecode=4c_.5_AS Length=4.9792 Units=m
New Line.LINE103_252 Bus1=103_250 Bus2=103_253 phases=3 Linecode=4c_.5_AS Length=4.9792 Units=m
New Line.LINE103_253 Bus1=103_252 Bus2=103_254 phases=3 Linecode=4c_.5 Length=16.4648 Units=m
New Line.LINE103_254 Bus1=103_254 Bus2=103_255 phases=3 Linecode=2c_.0225 Length=0.32631 Units=m
New Line.LINE103_255 Bus1=103_254 Bus2=103_256 phases=3 Linecode=4c_.5 Length=4.2138 Units=m
New Line.LINE103_256 Bus1=103_255 Bus2=103_257 phases=3 Linecode=2c_.0225 Length=0.32182 Units=m
New Line.LINE103_257 Bus1=103_256 Bus2=103_258 phases=3 Linecode=4c_.5 Length=0.3152 Units=m
New Line.LINE103_258 Bus1=103_257 Bus2=103_259 phases=3 Linecode=2c_.0225 Length=0.26365 Units=m
New Line.LINE103_259 Bus1=103_258 Bus2=103_260 phases=3 Linecode=4c_.5 Length=0.22454 Units=m
New Line.LINE103_260 Bus1=103_259 Bus2=103_261 phases=3 Linecode=2c_.0225 Length=0.35673 Units=m
New Line.LINE103_261 Bus1=103_260 Bus2=103_262 phases=3 Linecode=4c_.5 Length=0.26401 Units=m
New Line.LINE103_262 Bus1=103_261 Bus2=103_263 phases=3 Linecode=2c_.0225 Length=0.44522 Units=m
New Line.LINE103_263 Bus1=103_262 Bus2=103_264 phases=3 Linecode=4c_.5 Length=0.44783 Units=m
New Line.LINE103_264 Bus1=103_263 Bus2=103_265 phases=3 Linecode=2c_.0225 Length=0.37968 Units=m
New Line.LINE103_265 Bus1=103_264 Bus2=103_266 phases=3 Linecode=4c_.5 Length=0.41192 Units=m
New Line.LINE103_266 Bus1=103_265 Bus2=103_267 phases=3 Linecode=2c_.0225 Length=0.41015 Units=m
New Line.LINE103_267 Bus1=103_266 Bus2=103_268 phases=3 Linecode=4c_.5 Length=0.3182 Units=m
New Line.LINE103_268 Bus1=103_267 Bus2=103_269 phases=3 Linecode=2c_.0225 Length=0.324 Units=m
New Line.LINE103_269 Bus1=103_268 Bus2=103_270 phases=3 Linecode=4c_.5 Length=0.40753 Units=m
New Line.LINE103_270 Bus1=103_269 Bus2=103_271 phases=3 Linecode=2c_.0225 Length=0.21918 Units=m
New Line.LINE103_271 Bus1=103_270 Bus2=103_272 phases=3 Linecode=4c_.5 Length=0.38354 Units=m
New Line.LINE103_272 Bus1=103_272 Bus2=103_273 phases=3 Linecode=4c_.5 Length=0.34976 Units=m
New Line.LINE103_273 Bus1=103_273 Bus2=103_274 phases=3 Linecode=4c_.5 Length=0.528 Units=m
New Line.LINE103_274 Bus1=103_274 Bus2=103_275 phases=3 Linecode=4c_.5 Length=0.516 Units=m
New Line.LINE103_275 Bus1=103_275 Bus2=103_276 phases=3 Linecode=4c_.5 Length=2.9851 Units=m
New Line.LINE103_276 Bus1=103_276 Bus2=103_277 phases=3 Linecode=4c_.5 Length=3.3339 Units=m
New Line.LINE103_277 Bus1=103_276 Bus2=103_278 phases=3 Linecode=4c_.5 Length=3.1723 Units=m
New Line.LINE103_278 Bus1=103_276 Bus2=103_279 phases=3 Linecode=4c_.5 Length=9.7233 Units=m
New Line.LINE103_279 Bus1=103_277 Bus2=103_280 phases=3 Linecode=4c_.5 Length=0.151 Units=m
New Line.LINE103_280 Bus1=103_278 Bus2=103_281 phases=3 Linecode=4c_.5 Length=2.2098 Units=m
New Line.LINE103_281 Bus1=103_279 Bus2=103_282 phases=3 Linecode=4c_.5 Length=11.4048 Units=m
New Line.LINE103_282 Bus1=103_280 Bus2=103_283 phases=3 Linecode=4c_.5 Length=0.10508 Units=m
New Line.LINE103_283 Bus1=103_282 Bus2=103_284 phases=3 Linecode=4c_.25 Length=0.69335 Units=m
New Line.LINE103_284 Bus1=103_282 Bus2=103_285 phases=3 Linecode=4c_.5 Length=5.3231 Units=m
New Line.LINE103_285 Bus1=103_283 Bus2=103_286 phases=3 Linecode=4c_.5 Length=0.10325 Units=m
New Line.LINE103_286 Bus1=103_285 Bus2=103_287 phases=3 Linecode=95_SAC_XC Length=0.65218 Units=m
New Line.LINE103_287 Bus1=103_286 Bus2=103_288 phases=3 Linecode=4c_.5 Length=0.16575 Units=m
New Line.LINE103_288 Bus1=103_287 Bus2=103_289 phases=3 Linecode=95_SAC_XC Length=0.55244 Units=m
New Line.LINE103_289 Bus1=103_288 Bus2=103_290 phases=3 Linecode=4c_.5 Length=0.12694 Units=m
New Line.LINE103_290 Bus1=103_288 Bus2=103_291 phases=3 Linecode=4c_.5 Length=0.33394 Units=m
New Line.LINE103_291 Bus1=103_289 Bus2=103_292 phases=3 Linecode=95_SAC_XC Length=0.47835 Units=m
New Line.LINE103_292 Bus1=103_290 Bus2=103_293 phases=3 Linecode=4c_.5 Length=0.55734 Units=m
New Line.LINE103_293 Bus1=103_291 Bus2=103_294 phases=3 Linecode=4c_.5 Length=1.3605 Units=m
New Line.LINE103_294 Bus1=103_292 Bus2=103_295 phases=3 Linecode=4_PSC Length=0.19315 Units=m
New Line.LINE103_295 Bus1=103_292 Bus2=103_296 phases=3 Linecode=4c_.1 Length=0.62225 Units=m
New Line.LINE103_296 Bus1=103_292 Bus2=103_297 phases=3 Linecode=4c_.1 Length=0.62225 Units=m
New Line.LINE103_297 Bus1=103_293 Bus2=103_298 phases=3 Linecode=4c_.5 Length=0.3012 Units=m
New Line.LINE103_298 Bus1=103_294 Bus2=103_299 phases=3 Linecode=4c_.5 Length=0.16448 Units=m
New Line.LINE103_299 Bus1=103_295 Bus2=103_300 phases=3 Linecode=4_PSC Length=0.098046 Units=m
New Line.LINE103_300 Bus1=103_296 Bus2=103_301 phases=3 Linecode=4c_.1 Length=0.3417 Units=m
New Line.LINE103_301 Bus1=103_296 Bus2=103_302 phases=3 Linecode=4c_.1 Length=0.3417 Units=m
New Line.LINE103_302 Bus1=103_299 Bus2=103_303 phases=3 Linecode=4c_.5 Length=0.16411 Units=m
New Line.LINE103_303 Bus1=103_300 Bus2=103_304 phases=3 Linecode=4_PSC Length=0.092763 Units=m
New Line.LINE103_304 Bus1=103_301 Bus2=103_305 phases=3 Linecode=4c_.1 Length=0.52829 Units=m
New Line.LINE103_305 Bus1=103_301 Bus2=103_306 phases=3 Linecode=4c_.1 Length=0.52829 Units=m
New Line.LINE103_306 Bus1=103_304 Bus2=103_307 phases=3 Linecode=4_PSC Length=0.13565 Units=m
New Line.LINE103_307 Bus1=103_305 Bus2=103_308 phases=3 Linecode=4c_.1 Length=0.51831 Units=m
New Line.LINE103_308 Bus1=103_305 Bus2=103_309 phases=3 Linecode=4c_.1 Length=0.51831 Units=m
New Line.LINE103_309 Bus1=103_307 Bus2=103_310 phases=3 Linecode=4_PSC Length=0.16752 Units=m
New Line.LINE103_310 Bus1=103_308 Bus2=103_311 phases=3 Linecode=4c_.1 Length=0.42486 Units=m
New Line.LINE103_311 Bus1=103_308 Bus2=103_312 phases=3 Linecode=4c_.1 Length=0.42486 Units=m
New Line.LINE103_312 Bus1=103_310 Bus2=103_313 phases=3 Linecode=4_PSC Length=0.40501 Units=m
New Line.LINE103_313 Bus1=103_311 Bus2=103_314 phases=3 Linecode=4c_.1 Length=6.0086 Units=m
New Line.LINE103_314 Bus1=103_311 Bus2=103_315 phases=3 Linecode=4c_.1 Length=6.0086 Units=m
New Line.LINE103_315 Bus1=103_313 Bus2=103_316 phases=3 Linecode=4_PSC Length=0.44 Units=m