New Line.LINE58_1 Bus1=58_1 Bus2=58_2 phases=3 Linecode=4c_.1 Length=0.86977 Units=m
New Line.LINE58_2 Bus1=58_2 Bus2=58_3 phases=3 Linecode=4c_.1 Length=0.073187 Units=m
New Line.LINE58_3 Bus1=58_3 Bus2=58_4 phases=3 Linecode=4c_.1 Length=0.0575 Units=m
New Line.LINE58_4 Bus1=58_4 Bus2=58_5 phases=3 Linecode=4c_.1 Length=0.031623 Units=m
New Line.LINE58_5 Bus1=58_5 Bus2=58_6 phases=3 Linecode=4c_.1 Length=0.031623 Units=m
New Line.LINE58_6 Bus1=58_6 Bus2=58_7 phases=3 Linecode=4c_.1 Length=0.036056 Units=m
New Line.LINE58_7 Bus1=58_7 Bus2=58_8 phases=3 Linecode=4c_.1 Length=0.036054 Units=m
New Line.LINE58_8 Bus1=58_8 Bus2=58_9 phases=3 Linecode=4c_.1 Length=0.056569 Units=m
New Line.LINE58_9 Bus1=58_9 Bus2=58_10 phases=3 Linecode=4c_.1 Length=0.063246 Units=m
New Line.LINE58_10 Bus1=58_10 Bus2=58_11 phases=3 Linecode=4c_.1 Length=1.85 Units=m
New Line.LINE58_11 Bus1=58_11 Bus2=58_12 phases=3 Linecode=4c_.1 Length=0.067082 Units=m
New Line.LINE58_12 Bus1=58_12 Bus2=58_13 phases=3 Linecode=4c_.1 Length=0.05831 Units=m
New Line.LINE58_13 Bus1=58_13 Bus2=58_14 phases=3 Linecode=4c_.1 Length=0.050001 Units=m
New Line.LINE58_14 Bus1=58_14 Bus2=58_15 phases=3 Linecode=4c_.1 Length=0.056568 Units=m
New Line.LINE58_15 Bus1=58_15 Bus2=58_16 phases=3 Linecode=4c_.1 Length=0.049999 Units=m
New Line.LINE58_16 Bus1=58_16 Bus2=58_17 phases=3 Linecode=4c_.1 Length=0.050001 Units=m
New Line.LINE58_17 Bus1=58_17 Bus2=58_18 phases=3 Linecode=4c_.1 Length=0.067083 Units=m
New Line.LINE58_18 Bus1=58_18 Bus2=58_19 phases=3 Linecode=4c_.1 Length=0.04123 Units=m
New Line.LINE58_19 Bus1=58_19 Bus2=58_20 phases=3 Linecode=4c_.1 Length=0.082462 Units=m
New Line.LINE58_20 Bus1=58_20 Bus2=58_21 phases=3 Linecode=4c_.1 Length=0.68731 Units=m
New Line.LINE58_21 Bus1=58_21 Bus2=58_22 phases=3 Linecode=4c_.1 Length=0.08246 Units=m
New Line.LINE58_22 Bus1=58_22 Bus2=58_23 phases=3 Linecode=4c_.1 Length=0.072802 Units=m
New Line.LINE58_23 Bus1=58_23 Bus2=58_24 phases=3 Linecode=4c_.1 Length=0.080623 Units=m
New Line.LINE58_24 Bus1=58_24 Bus2=58_25 phases=3 Linecode=4c_.1 Length=0.084854 Units=m
New Line.LINE58_25 Bus1=58_25 Bus2=58_26 phases=3 Linecode=4c_.1 Length=1.5416 Units=m
New Line.LINE58_26 Bus1=58_26 Bus2=58_27 phases=3 Linecode=4c_.1 Length=0.092195 Units=m
New Line.LINE58_27 Bus1=58_27 Bus2=58_28 phases=3 Linecode=4c_.1 Length=0.080621 Units=m
New Line.LINE58_28 Bus1=58_28 Bus2=58_29 phases=3 Linecode=4c_.1 Length=0.10771 Units=m
New Line.LINE58_29 Bus1=58_29 Bus2=58_30 phases=3 Linecode=4c_.1 Length=0.12041 Units=m
New Line.LINE58_30 Bus1=58_30 Bus2=58_31 phases=3 Linecode=4c_.1 Length=2.7515 Units=m
New Line.LINE58_31 Bus1=58_31 Bus2=58_32 phases=3 Linecode=4c_.1 Length=3.2688 Units=m
New Line.LINE58_32 Bus1=58_32 Bus2=58_33 phases=3 Linecode=4c_.1 Length=0.32 Units=m
New Line.LINE58_33 Bus1=58_33 Bus2=58_34 phases=3 Linecode=4c_.1 Length=0.11402 Units=m
New Line.LINE58_34 Bus1=58_34 Bus2=58_35 phases=3 Linecode=4c_.1 Length=0.17205 Units=m
New Line.LINE58_35 Bus1=58_35 Bus2=58_36 phases=3 Linecode=4c_.1 Length=0.18358 Units=m
New Line.LINE58_36 Bus1=58_36 Bus2=58_37 phases=3 Linecode=4c_.1 Length=0.21932 Units=m
New Line.LINE58_37 Bus1=58_37 Bus2=58_38 phases=3 Linecode=4c_.1 Length=0.25239 Units=m
New Line.LINE58_38 Bus1=58_38 Bus2=58_39 phases=3 Linecode=4c_.1 Length=0.38626 Units=m
New Line.LINE58_39 Bus1=58_39 Bus2=58_40 phases=3 Linecode=4c_.1 Length=7.5953 Units=m
New Line.LINE58_40 Bus1=58_40 Bus2=58_41 phases=3 Linecode=4c_.1 Length=4.7407 Units=m
New Line.LINE58_41 Bus1=58_41 Bus2=58_42 phases=3 Linecode=4c_.1 Length=1.4425 Units=m
New Line.LINE58_42 Bus1=58_41 Bus2=58_43 phases=3 Linecode=4c_.1 Length=3.9936 Units=m
New Line.LINE58_43 Bus1=58_42 Bus2=58_44 phases=3 Linecode=4c_.1 Length=0.12024 Units=m
New Line.LINE58_44 Bus1=58_43 Bus2=58_45 phases=3 Linecode=2c_.0225 Length=7.4994 Units=m
New Line.LINE58_45 Bus1=58_43 Bus2=58_46 phases=3 Linecode=4c_.1 Length=5.5103 Units=m
New Line.LINE58_46 Bus1=58_44 Bus2=58_47 phases=3 Linecode=4c_.1 Length=0.060746 Units=m
New Line.LINE58_47 Bus1=58_45 Bus2=58_48 phases=3 Linecode=2c_.0225 Length=3.8536 Units=m
New Line.LINE58_48 Bus1=58_46 Bus2=58_49 phases=3 Linecode=4c_.1 Length=5.5452 Units=m
New Line.LINE58_49 Bus1=58_47 Bus2=58_50 phases=3 Linecode=4c_.1 Length=0.074464 Units=m
New Line.LINE58_50 Bus1=58_49 Bus2=58_51 phases=3 Linecode=4c_.1 Length=1.9629 Units=m
New Line.LINE58_51 Bus1=58_49 Bus2=58_52 phases=3 Linecode=2c_.0225 Length=7.3255 Units=m
New Line.LINE58_52 Bus1=58_50 Bus2=58_53 phases=3 Linecode=4c_.1 Length=0.087476 Units=m
New Line.LINE58_53 Bus1=58_51 Bus2=58_54 phases=3 Linecode=4c_.1 Length=1.207 Units=m
New Line.LINE58_54 Bus1=58_52 Bus2=58_55 phases=3 Linecode=2c_.0225 Length=5.2124 Units=m
New Line.LINE58_55 Bus1=58_53 Bus2=58_56 phases=3 Linecode=4c_.1 Length=0.087092 Units=m
New Line.LINE58_56 Bus1=58_54 Bus2=58_57 phases=3 Linecode=4c_.06 Length=0.82006 Units=m
New Line.LINE58_57 Bus1=58_54 Bus2=58_58 phases=3 Linecode=4c_.1 Length=0.18439 Units=m
New Line.LINE58_58 Bus1=58_56 Bus2=58_59 phases=3 Linecode=4c_.1 Length=0.083241 Units=m
New Line.LINE58_59 Bus1=58_57 Bus2=58_60 phases=3 Linecode=4c_.06 Length=0.34525 Units=m
New Line.LINE58_60 Bus1=58_58 Bus2=58_61 phases=3 Linecode=4c_.1 Length=0.18028 Units=m
New Line.LINE58_61 Bus1=58_59 Bus2=58_62 phases=3 Linecode=4c_.1 Length=0.07112 Units=m
New Line.LINE58_62 Bus1=58_60 Bus2=58_63 phases=3 Linecode=4c_.06 Length=0.39319 Units=m
New Line.LINE58_63 Bus1=58_61 Bus2=58_64 phases=3 Linecode=4c_.1 Length=0.13928 Units=m
New Line.LINE58_64 Bus1=58_62 Bus2=58_65 phases=3 Linecode=4c_.1 Length=0.11477 Units=m
New Line.LINE58_65 Bus1=58_63 Bus2=58_66 phases=3 Linecode=4c_.06 Length=0.46819 Units=m
New Line.LINE58_66 Bus1=58_64 Bus2=58_67 phases=3 Linecode=4c_.1 Length=0.15811 Units=m
New Line.LINE58_67 Bus1=58_65 Bus2=58_68 phases=3 Linecode=4c_.1 Length=0.099322 Units=m
New Line.LINE58_68 Bus1=58_66 Bus2=58_69 phases=3 Linecode=4c_.06 Length=0.41231 Units=m
New Line.LINE58_69 Bus1=58_67 Bus2=58_70 phases=3 Linecode=4c_.1 Length=0.19723 Units=m
New Line.LINE58_70 Bus1=58_68 Bus2=58_71 phases=3 Linecode=4c_.1 Length=0.090444 Units=m
New Line.LINE58_71 Bus1=58_69 Bus2=58_72 phases=3 Linecode=4c_.06 Length=0.35847 Units=m
New Line.LINE58_72 Bus1=58_70 Bus2=58_73 phases=3 Linecode=4c_.1 Length=0.17493 Units=m
New Line.LINE58_73 Bus1=58_71 Bus2=58_74 phases=3 Linecode=4c_.1 Length=0.070349 Units=m
New Line.LINE58_74 Bus1=58_72 Bus2=58_75 phases=3 Linecode=4c_.06 Length=0.4272 Units=m
New Line.LINE58_75 Bus1=58_73 Bus2=58_76 phases=3 Linecode=4c_.1 Length=0.30414 Units=m
New Line.LINE58_76 Bus1=58_74 Bus2=58_77 phases=3 Linecode=4_XC Length=0.10127 Units=m
New Line.LINE58_77 Bus1=58_75 Bus2=58_78 phases=3 Linecode=4c_.06 Length=0.94366 Units=m
New Line.LINE58_78 Bus1=58_76 Bus2=58_79 phases=3 Linecode=4c_.1 Length=0.22204 Units=m
New Line.LINE58_79 Bus1=58_77 Bus2=58_80 phases=3 Linecode=4_XC Length=0.19244 Units=m
New Line.LINE58_80 Bus1=58_78 Bus2=58_81 phases=3 Linecode=4c_.06 Length=0.57776 Units=m
New Line.LINE58_81 Bus1=58_79 Bus2=58_82 phases=3 Linecode=4c_.1 Length=0.27018 Units=m
New Line.LINE58_82 Bus1=58_80 Bus2=58_83 phases=3 Linecode=4_XC Length=0.19263 Units=m
New Line.LINE58_83 Bus1=58_81 Bus2=58_84 phases=3 Linecode=4c_.06 Length=17.7301 Units=m
New Line.LINE58_84 Bus1=58_82 Bus2=58_85 phases=3 Linecode=4c_.1 Length=0.40262 Units=m
New Line.LINE58_85 Bus1=58_83 Bus2=58_86 phases=3 Linecode=4_XC Length=0.19195 Units=m
New Line.LINE58_86 Bus1=58_84 Bus2=58_87 phases=3 Linecode=4_XC Length=0.28838 Units=m
New Line.LINE58_87 Bus1=58_84 Bus2=58_88 phases=3 Linecode=4c_.06 Length=2.9925 Units=m
New Line.LINE58_88 Bus1=58_85 Bus2=58_89 phases=3 Linecode=4c_.1 Length=0.24042 Units=m
New Line.LINE58_89 Bus1=58_86 Bus2=58_90 phases=3 Linecode=4_XC Length=0.19213 Units=m
New Line.LINE58_90 Bus1=58_87 Bus2=58_91 phases=3 Linecode=4_XC Length=0.45365 Units=m
New Line.LINE58_91 Bus1=58_88 Bus2=58_92 phases=3 Linecode=4c_.06 Length=4.5052 Units=m
New Line.LINE58_92 Bus1=58_89 Bus2=58_93 phases=3 Linecode=4c_.1 Length=0.22136 Units=m
New Line.LINE58_93 Bus1=58_90 Bus2=58_94 phases=3 Linecode=4_XC Length=7.1971 Units=m
New Line.LINE58_94 Bus1=58_91 Bus2=58_95 phases=3 Linecode=4_XC Length=0.096604 Units=m
New Line.LINE58_95 Bus1=58_92 Bus2=58_96 phases=3 Linecode=2c_.0225 Length=7.0781 Units=m
New Line.LINE58_96 Bus1=58_92 Bus2=58_97 phases=3 Linecode=4c_.06 Length=0.49828 Units=m
New Line.LINE58_97 Bus1=58_93 Bus2=58_98 phases=3 Linecode=4c_.1 Length=0.24597 Units=m
New Line.LINE58_98 Bus1=58_95 Bus2=58_99 phases=3 Linecode=4_XC Length=0.095426 Units=m
New Line.LINE58_99 Bus1=58_96 Bus2=58_100 phases=3 Linecode=2c_.0225 Length=5.7392 Units=m
New Line.LINE58_100 Bus1=58_97 Bus2=58_101 phases=3 Linecode=4c_.06 Length=6.1912 Units=m
New Line.LINE58_101 Bus1=58_97 Bus2=58_102 phases=3 Linecode=4c_.6 Length=10.0352 Units=m
New Line.LINE58_102 Bus1=58_98 Bus2=58_103 phases=3 Linecode=4c_.1 Length=0.36235 Units=m
New Line.LINE58_103 Bus1=58_99 Bus2=58_104 phases=3 Linecode=4_XC Length=0.096331 Units=m
New Line.LINE58_104 Bus1=58_101 Bus2=58_105 phases=3 Linecode=4c_.06 Length=0.31689 Units=m
New Line.LINE58_105 Bus1=58_102 Bus2=58_106 phases=3 Linecode=2c_.0225 Length=7.2867 Units=m
New Line.LINE58_106 Bus1=58_102 Bus2=58_107 phases=3 Linecode=4c_.6 Length=0.13256 Units=m
New Line.LINE58_107 Bus1=58_103 Bus2=58_108 phases=3 Linecode=4c_.1 Length=0.2642 Units=m
New Line.LINE58_108 Bus1=58_104 Bus2=58_109 phases=3 Linecode=4_XC Length=0.095525 Units=m
New Line.LINE58_109 Bus1=58_105 Bus2=58_110 phases=3 Linecode=4c_.06 Length=0.1808 Units=m
New Line.LINE58_110 Bus1=58_106 Bus2=58_111 phases=3 Linecode=2c_.0225 Length=6.008 Units=m
New Line.LINE58_111 Bus1=58_107 Bus2=58_112 phases=3 Linecode=4c_.6 Length=6.5701 Units=m
New Line.LINE58_112 Bus1=58_108 Bus2=58_113 phases=3 Linecode=4c_.1 Length=0.34205 Units=m
New Line.LINE58_113 Bus1=58_109 Bus2=58_114 phases=3 Linecode=4_XC Length=0.096462 Units=m
New Line.LINE58_114 Bus1=58_110 Bus2=58_115 phases=3 Linecode=4c_.06 Length=0.20529 Units=m
New Line.LINE58_115 Bus1=58_112 Bus2=58_116 phases=3 Linecode=2c_.0225 Length=7.183 Units=m
New Line.LINE58_116 Bus1=58_112 Bus2=58_117 phases=3 Linecode=4c_.6 Length=10.1003 Units=m
New Line.LINE58_117 Bus1=58_113 Bus2=58_118 phases=3 Linecode=4c_.1 Length=0.22472 Units=m
New Line.LINE58_118 Bus1=58_115 Bus2=58_119 phases=3 Linecode=4c_.06 Length=0.15474 Units=m
New Line.LINE58_119 Bus1=58_116 Bus2=58_120 phases=3 Linecode=2c_.0225 Length=5.3354 Units=m
New Line.LINE58_120 Bus1=58_117 Bus2=58_121 phases=3 Linecode=2c_.0225 Length=7.3181 Units=m
New Line.LINE58_121 Bus1=58_117 Bus2=58_122 phases=3 Linecode=4c_.6 Length=2.9453 Units=m
New Line.LINE58_122 Bus1=58_118 Bus2=58_123 phases=3 Linecode=4c_.1 Length=0.25179 Units=m
New Line.LINE58_123 Bus1=58_119 Bus2=58_124 phases=3 Linecode=4c_.06 Length=0.14799 Units=m
New Line.LINE58_124 Bus1=58_121 Bus2=58_125 phases=3 Linecode=2c_.0225 Length=5.8339 Units=m
New Line.LINE58_125 Bus1=58_122 Bus2=58_126 phases=3 Linecode=4_XC Length=0.2342 Units=m
New Line.LINE58_126 Bus1=58_122 Bus2=58_127 phases=3 Linecode=4c_.6 Length=1.806 Units=m
New Line.LINE58_127 Bus1=58_123 Bus2=58_128 phases=3 Linecode=4c_.1 Length=0.32062 Units=m
New Line.LINE58_128 Bus1=58_124 Bus2=58_129 phases=3 Linecode=4c_.06 Length=0.17018 Units=m
New Line.LINE58_129 Bus1=58_126 Bus2=58_130 phases=3 Linecode=4_XC Length=0.39818 Units=m
New Line.LINE58_130 Bus1=58_127 Bus2=58_131 phases=3 Linecode=4c_.6 Length=3.3955 Units=m
New Line.LINE58_131 Bus1=58_128 Bus2=58_132 phases=3 Linecode=4c_.1 Length=0.23601 Units=m
New Line.LINE58_132 Bus1=58_129 Bus2=58_133 phases=3 Linecode=4c_.06 Length=0.17739 Units=m
New Line.LINE58_133 Bus1=58_130 Bus2=58_134 phases=3 Linecode=4_XC Length=0.17254 Units=m
New Line.LINE58_134 Bus1=58_131 Bus2=58_135 phases=3 Linecode=4c_.6 Length=4.9129 Units=m
New Line.LINE58_135 Bus1=58_131 Bus2=58_136 phases=3 Linecode=2c_.0225 Length=3.9568 Units=m
New Line.LINE58_136 Bus1=58_132 Bus2=58_137 phases=3 Linecode=4c_.1 Length=6.2824 Units=m
New Line.LINE58_137 Bus1=58_133 Bus2=58_138 phases=3 Linecode=4c_.06 Length=0.28116 Units=m
New Line.LINE58_138 Bus1=58_134 Bus2=58_139 phases=3 Linecode=4_XC Length=0.17107 Units=m
New Line.LINE58_139 Bus1=58_135 Bus2=58_140 phases=3 Linecode=4c_.6 Length=5.4652 Units=m
New Line.LINE58_140 Bus1=58_136 Bus2=58_141 phases=3 Linecode=2c_.0225 Length=5.2247 Units=m
New Line.LINE58_141 Bus1=58_137 Bus2=58_142 phases=3 Linecode=4c_.1 Length=0.56036 Units=m
New Line.LINE58_142 Bus1=58_138 Bus2=58_143 phases=3 Linecode=2c_.0225 Length=5.9852 Units=m
New Line.LINE58_143 Bus1=58_138 Bus2=58_144 phases=3 Linecode=4c_.06 Length=4.1463 Units=m
New Line.LINE58_144 Bus1=58_139 Bus2=58_145 phases=3 Linecode=4_XC Length=0.172 Units=m
New Line.LINE58_145 Bus1=58_140 Bus2=58_146 phases=3 Linecode=4c_.6 Length=2.9308 Units=m
New Line.LINE58_146 Bus1=58_140 Bus2=58_147 phases=3 Linecode=2c_.0225 Length=2.9138 Units=m
New Line.LINE58_147 Bus1=58_141 Bus2=58_148 phases=3 Linecode=2c_.0225 Length=4.8791 Units=m
New Line.LINE58_148 Bus1=58_142 Bus2=58_149 phases=3 Linecode=4c_.1 Length=0.38897 Units=m
New Line.LINE58_149 Bus1=58_143 Bus2=58_150 phases=3 Linecode=2c_.0225 Length=4.4845 Units=m
New Line.LINE58_150 Bus1=58_144 Bus2=58_151 phases=3 Linecode=4c_.06 Length=0.33493 Units=m
New Line.LINE58_151 Bus1=58_144 Bus2=58_152 phases=3 Linecode=4c_.06 Length=5.0032 Units=m
New Line.LINE58_152 Bus1=58_146 Bus2=58_153 phases=3 Linecode=4c_.6 Length=0.63213 Units=m
New Line.LINE58_153 Bus1=58_147 Bus2=58_154 phases=3 Linecode=2c_.0225 Length=6.3877 Units=m
New Line.LINE58_154 Bus1=58_149 Bus2=58_155 phases=3 Linecode=4c_.1 Length=0.35511 Units=m
New Line.LINE58_155 Bus1=58_151 Bus2=58_156 phases=3 Linecode=4c_.06 Length=0.26028 Units=m
New Line.LINE58_156 Bus1=58_152 Bus2=58_157 phases=3 Linecode=2c_.0225 Length=6.1083 Units=m
New Line.LINE58_157 Bus1=58_152 Bus2=58_158 phases=3 Linecode=4c_.06 Length=8.5168 Units=m
New Line.LINE58_158 Bus1=58_153 Bus2=58_159 phases=3 Linecode=4_XSC Length=0.10963 Units=m
New Line.LINE58_159 Bus1=58_153 Bus2=58_160 phases=3 Linecode=4c_.6 Length=3.3182 Units=m
New Line.LINE58_160 Bus1=58_154 Bus2=58_161 phases=3 Linecode=2c_.0225 Length=5.3367 Units=m
New Line.LINE58_161 Bus1=58_155 Bus2=58_162 phases=3 Linecode=4c_.1 Length=0.3189 Units=m
New Line.LINE58_162 Bus1=58_156 Bus2=58_163 phases=3 Linecode=4c_.06 Length=0.4793 Units=m
New Line.LINE58_163 Bus1=58_157 Bus2=58_164 phases=3 Linecode=2c_.0225 Length=4.894 Units=m
New Line.LINE58_164 Bus1=58_158 Bus2=58_165 phases=3 Linecode=2c_.0225 Length=5.5435 Units=m
New Line.LINE58_165 Bus1=58_158 Bus2=58_166 phases=3 Linecode=4c_.06 Length=10.6433 Units=m
New Line.LINE58_166 Bus1=58_159 Bus2=58_167 phases=3 Linecode=4_XSC Length=0.11039 Units=m
New Line.LINE58_167 Bus1=58_160 Bus2=58_168 phases=3 Linecode=4c_.6 Length=2.9487 Units=m
New Line.LINE58_168 Bus1=58_160 Bus2=58_169 phases=3 Linecode=2c_.0225 Length=2.6534 Units=m
New Line.LINE58_169 Bus1=58_162 Bus2=58_170 phases=3 Linecode=4c_.1 Length=0.30806 Units=m
New Line.LINE58_170 Bus1=58_165 Bus2=58_171 phases=3 Linecode=2c_.0225 Length=4.3521 Units=m
New Line.LINE58_171 Bus1=58_166 Bus2=58_172 phases=3 Linecode=2c_.0225 Length=5.4017 Units=m
New Line.LINE58_172 Bus1=58_166 Bus2=58_173 phases=3 Linecode=4c_.06 Length=3.8425 Units=m
New Line.LINE58_173 Bus1=58_167 Bus2=58_174 phases=3 Linecode=4_XSC Length=0.11031 Units=m
New Line.LINE58_174 Bus1=58_168 Bus2=58_175 phases=3 Linecode=4c_.6 Length=2.3439 Units=m
New Line.LINE58_175 Bus1=58_169 Bus2=58_176 phases=3 Linecode=2c_.0225 Length=4.2204 Units=m
New Line.LINE58_176 Bus1=58_170 Bus2=58_177 phases=3 Linecode=4c_.1 Length=0.40361 Units=m
New Line.LINE58_177 Bus1=58_172 Bus2=58_178 phases=3 Linecode=2c_.0225 Length=4.7584 Units=m
New Line.LINE58_178 Bus1=58_173 Bus2=58_179 phases=3 Linecode=4c_.06 Length=4.5717 Units=m
New Line.LINE58_179 Bus1=58_174 Bus2=58_180 phases=3 Linecode=4_XSC Length=0.11038 Units=m
New Line.LINE58_180 Bus1=58_175 Bus2=58_181 phases=3 Linecode=4c_.6 Length=1.1992 Units=m
New Line.LINE58_181 Bus1=58_175 Bus2=58_182 phases=3 Linecode=2c_.0225 Length=2.5626 Units=m
New Line.LINE58_182 Bus1=58_176 Bus2=58_183 phases=3 Linecode=2c_.0225 Length=2.3167 Units=m
New Line.LINE58_183 Bus1=58_177 Bus2=58_184 phases=3 Linecode=4c_.1 Length=0.44654 Units=m
New Line.LINE58_184 Bus1=58_179 Bus2=58_185 phases=3 Linecode=4c_.06 Length=8.0542 Units=m
New Line.LINE58_185 Bus1=58_179 Bus2=58_186 phases=3 Linecode=2c_.0225 Length=4.89 Units=m
New Line.LINE58_186 Bus1=58_180 Bus2=58_187 phases=3 Linecode=4_XSC Length=0.11031 Units=m
New Line.LINE58_187 Bus1=58_181 Bus2=58_188 phases=3 Linecode=4c_.6 Length=0.25672 Units=m
New Line.LINE58_188 Bus1=58_182 Bus2=58_189 phases=3 Linecode=2c_.0225 Length=2.195 Units=m
New Line.LINE58_189 Bus1=58_183 Bus2=58_190 phases=3 Linecode=2c_.0225 Length=5.4748 Units=m
New Line.LINE58_190 Bus1=58_184 Bus2=58_191 phases=3 Linecode=4c_.1 Length=0.5557 Units=m
New Line.LINE58_191 Bus1=58_185 Bus2=58_192 phases=3 Linecode=4c_.06 Length=1.6725 Units=m
New Line.LINE58_192 Bus1=58_186 Bus2=58_193 phases=3 Linecode=2c_.0225 Length=5.3899 Units=m
New Line.LINE58_193 Bus1=58_187 Bus2=58_194 phases=3 Linecode=4_XSC Length=0.94461 Units=m
New Line.LINE58_194 Bus1=58_188 Bus2=58_195 phases=3 Linecode=4c_.6 Length=0.19228 Units=m
New Line.LINE58_195 Bus1=58_189 Bus2=58_196 phases=3 Linecode=2c_.0225 Length=5.7174 Units=m
New Line.LINE58_196 Bus1=58_191 Bus2=58_197 phases=3 Linecode=4c_.1 Length=1.556 Units=m
New Line.LINE58_197 Bus1=58_192 Bus2=58_198 phases=3 Linecode=4c_.06 Length=1.8724 Units=m
New Line.LINE58_198 Bus1=58_192 Bus2=58_199 phases=3 Linecode=2c_.0225 Length=4.7314 Units=m
New Line.LINE58_199 Bus1=58_195 Bus2=58_200 phases=3 Linecode=4c_.6 Length=0.27356 Units=m
New Line.LINE58_200 Bus1=58_196 Bus2=58_201 phases=3 Linecode=2c_.0225 Length=4.7111 Units=m
New Line.LINE58_201 Bus1=58_197 Bus2=58_202 phases=3 Linecode=4c_.1 Length=10.4467 Units=m
New Line.LINE58_202 Bus1=58_198 Bus2=58_203 phases=3 Linecode=4c_.06 Length=0.21883 Units=m
New Line.LINE58_203 Bus1=58_199 Bus2=58_204 phases=3 Linecode=2c_.0225 Length=4.7722 Units=m
New Line.LINE58_204 Bus1=58_200 Bus2=58_205 phases=3 Linecode=4c_.6 Length=0.22743 Units=m
New Line.LINE58_205 Bus1=58_202 Bus2=58_206 phases=3 Linecode=4c_.1 Length=0.89822 Units=m
New Line.LINE58_206 Bus1=58_203 Bus2=58_207 phases=3 Linecode=4c_.06 Length=0.33667 Units=m
New Line.LINE58_207 Bus1=58_205 Bus2=58_208 phases=3 Linecode=4c_.6 Length=0.37013 Units=m
New Line.LINE58_208 Bus1=58_206 Bus2=58_209 phases=3 Linecode=4c_.1 Length=4.217 Units=m
New Line.LINE58_209 Bus1=58_207 Bus2=58_210 phases=3 Linecode=4c_.06 Length=0.27593 Units=m
New Line.LINE58_210 Bus1=58_208 Bus2=58_211 phases=3 Linecode=4c_.6 Length=0.37639 Units=m
New Line.LINE58_211 Bus1=58_208 Bus2=58_212 phases=3 Linecode=2c_.0225 Length=0.38619 Units=m
New Line.LINE58_212 Bus1=58_209 Bus2=58_213 phases=3 Linecode=4c_.1 Length=1.68 Units=m
New Line.LINE58_213 Bus1=58_210 Bus2=58_214 phases=3 Linecode=4c_.06 Length=0.32656 Units=m
New Line.LINE58_214 Bus1=58_211 Bus2=58_215 phases=3 Linecode=4c_.6 Length=0.47588 Units=m
New Line.LINE58_215 Bus1=58_212 Bus2=58_216 phases=3 Linecode=2c_.0225 Length=0.21044 Units=m
New Line.LINE58_216 Bus1=58_213 Bus2=58_217 phases=3 Linecode=4c_.1 Length=1.0429 Units=m
New Line.LINE58_217 Bus1=58_214 Bus2=58_218 phases=3 Linecode=4c_.06 Length=0.2928 Units=m
New Line.LINE58_218 Bus1=58_215 Bus2=58_219 phases=3 Linecode=4c_.6 Length=2.9419 Units=m
New Line.LINE58_219 Bus1=58_216 Bus2=58_220 phases=3 Linecode=2c_.0225 Length=0.27908 Units=m
New Line.LINE58_220 Bus1=58_217 Bus2=58_221 phases=3 Linecode=4c_.1 Length=1.206 Units=m
New Line.LINE58_221 Bus1=58_218 Bus2=58_222 phases=3 Linecode=4c_.06 Length=0.1092 Units=m
New Line.LINE58_222 Bus1=58_219 Bus2=58_223 phases=3 Linecode=2c_.0225 Length=3.8945 Units=m
New Line.LINE58_223 Bus1=58_219 Bus2=58_224 phases=3 Linecode=4c_.6 Length=0.60431 Units=m
New Line.LINE58_224 Bus1=58_220 Bus2=58_225 phases=3 Linecode=2c_.0225 Length=1.4548 Units=m
New Line.LINE58_225 Bus1=58_221 Bus2=58_226 phases=3 Linecode=4c_.1 Length=1.584 Units=m
New Line.LINE58_226 Bus1=58_222 Bus2=58_227 phases=3 Linecode=4c_.06 Length=1.348 Units=m
New Line.LINE58_227 Bus1=58_223 Bus2=58_228 phases=3 Linecode=2c_.0225 Length=2.6972 Units=m
New Line.LINE58_228 Bus1=58_224 Bus2=58_229 phases=3 Linecode=4c_.1_SAC Length=7.8925 Units=m
New Line.LINE58_229 Bus1=58_225 Bus2=58_230 phases=3 Linecode=2c_.0225 Length=7.0399 Units=m
New Line.LINE58_230 Bus1=58_226 Bus2=58_231 phases=3 Linecode=4c_.1 Length=0.48508 Units=m
New Line.LINE58_231 Bus1=58_228 Bus2=58_232 phases=3 Linecode=2c_.0225 Length=5.8306 Units=m
New Line.LINE58_232 Bus1=58_229 Bus2=58_233 phases=3 Linecode=4c_.1_SAC Length=0.040556 Units=m
New Line.LINE58_233 Bus1=58_230 Bus2=58_234 phases=3 Linecode=2c_.0225 Length=0.15298 Units=m
New Line.LINE58_234 Bus1=58_231 Bus2=58_235 phases=3 Linecode=4c_.1 Length=0.55785 Units=m
New Line.LINE58_235 Bus1=58_233 Bus2=58_236 phases=3 Linecode=4_XC Length=0.38024 Units=m
New Line.LINE58_236 Bus1=58_233 Bus2=58_237 phases=3 Linecode=4c_.1_SAC Length=8.217 Units=m
New Line.LINE58_237 Bus1=58_234 Bus2=58_238 phases=3 Linecode=2c_.0225 Length=0.17509 Units=m
New Line.LINE58_238 Bus1=58_235 Bus2=58_239 phases=3 Linecode=4c_.1 Length=1.2827 Units=m
New Line.LINE58_239 Bus1=58_236 Bus2=58_240 phases=3 Linecode=4_XC Length=0.35605 Units=m
New Line.LINE58_240 Bus1=58_237 Bus2=58_241 phases=3 Linecode=4c_.1_SAC Length=5.9479 Units=m
New Line.LINE58_241 Bus1=58_238 Bus2=58_242 phases=3 Linecode=2c_.0225 Length=0.43886 Units=m
New Line.LINE58_242 Bus1=58_239 Bus2=58_243 phases=3 Linecode=4c_.1 Length=0.81302 Units=m
New Line.LINE58_243 Bus1=58_241 Bus2=58_244 phases=3 Linecode=4c_.1_SAC Length=2.659 Units=m
New Line.LINE58_244 Bus1=58_242 Bus2=58_245 phases=3 Linecode=2c_.0225 Length=5.5401 Units=m
New Line.LINE58_245 Bus1=58_243 Bus2=58_246 phases=3 Linecode=4c_.1 Length=0.91022 Units=m
New Line.LINE58_246 Bus1=58_244 Bus2=58_247 phases=3 Linecode=4c_.0225 Length=6.5819 Units=m
New Line.LINE58_247 Bus1=58_244 Bus2=58_248 phases=3 Linecode=4c_.1_SAC Length=2.4558 Units=m
New Line.LINE58_248 Bus1=58_246 Bus2=58_249 phases=3 Linecode=4c_.1 Length=1.5203 Units=m
New Line.LINE58_249 Bus1=58_247 Bus2=58_250 phases=3 Linecode=2c_.0225 Length=4.566 Units=m
New Line.LINE58_250 Bus1=58_247 Bus2=58_251 phases=3 Linecode=4c_.0225 Length=3.4416 Units=m
New Line.LINE58_251 Bus1=58_248 Bus2=58_252 phases=3 Linecode=4_XC Length=0.26144 Units=m
New Line.LINE58_252 Bus1=58_248 Bus2=58_253 phases=3 Linecode=4c_.1_SAC Length=0.35249 Units=m
New Line.LINE58_253 Bus1=58_249 Bus2=58_254 phases=3 Linecode=4c_.1 Length=1.6611 Units=m
New Line.LINE58_254 Bus1=58_250 Bus2=58_255 phases=3 Linecode=2c_.0225 Length=2.4525 Units=m
New Line.LINE58_255 Bus1=58_251 Bus2=58_256 phases=3 Linecode=4c_.0225 Length=6.3928 Units=m
New Line.LINE58_256 Bus1=58_252 Bus2=58_257 phases=3 Linecode=4_XC Length=0.15457 Units=m
New Line.LINE58_257 Bus1=58_253 Bus2=58_258 phases=3 Linecode=25_SAC_XC Length=0.29906 Units=m
New Line.LINE58_258 Bus1=58_253 Bus2=58_259 phases=3 Linecode=4c_.1_SAC Length=0.89437 Units=m
New Line.LINE58_259 Bus1=58_254 Bus2=58_260 phases=3 Linecode=4c_.1 Length=2.1915 Units=m
New Line.LINE58_260 Bus1=58_255 Bus2=58_261 phases=3 Linecode=2c_.0225 Length=7.2158 Units=m
New Line.LINE58_261 Bus1=58_256 Bus2=58_262 phases=3 Linecode=2c_.0225 Length=6.4278 Units=m
New Line.LINE58_262 Bus1=58_256 Bus2=58_263 phases=3 Linecode=4c_.0225 Length=1.7716 Units=m
New Line.LINE58_263 Bus1=58_257 Bus2=58_264 phases=3 Linecode=4_XC Length=0.15373 Units=m
New Line.LINE58_264 Bus1=58_258 Bus2=58_265 phases=3 Linecode=25_SAC_XC Length=0.23008 Units=m
New Line.LINE58_265 Bus1=58_259 Bus2=58_266 phases=3 Linecode=4_XSC Length=0.33424 Units=m
New Line.LINE58_266 Bus1=58_259 Bus2=58_267 phases=3 Linecode=4c_.1_SAC Length=4.7545 Units=m
New Line.LINE58_267 Bus1=58_260 Bus2=58_268 phases=3 Linecode=4c_.1 Length=1.2081 Units=m
New Line.LINE58_268 Bus1=58_262 Bus2=58_269 phases=3 Linecode=2c_.0225 Length=0.80219 Units=m
New Line.LINE58_269 Bus1=58_263 Bus2=58_270 phases=3 Linecode=2c_.0225 Length=2.2247 Units=m
New Line.LINE58_270 Bus1=58_264 Bus2=58_271 phases=3 Linecode=4_XC Length=0.1543 Units=m
New Line.LINE58_271 Bus1=58_265 Bus2=58_272 phases=3 Linecode=25_SAC_XC Length=2.05 Units=m
New Line.LINE58_272 Bus1=58_266 Bus2=58_273 phases=3 Linecode=4_XSC Length=0.14835 Units=m
New Line.LINE58_273 Bus1=58_267 Bus2=58_274 phases=3 Linecode=4c_.1_SAC Length=2.262 Units=m
New Line.LINE58_274 Bus1=58_267 Bus2=58_275 phases=3 Linecode=25_SAC_XC Length=0.21606 Units=m
New Line.LINE58_275 Bus1=58_268 Bus2=58_276 phases=3 Linecode=4c_.1 Length=2.8738 Units=m
New Line.LINE58_276 Bus1=58_269 Bus2=58_277 phases=3 Linecode=2c_.0225 Length=6.0949 Units=m
New Line.LINE58_277 Bus1=58_270 Bus2=58_278 phases=3 Linecode=2c_.0225 Length=4.5959 Units=m
New Line.LINE58_278 Bus1=58_271 Bus2=58_279 phases=3 Linecode=4_XC Length=0.15426 Units=m
New Line.LINE58_279 Bus1=58_272 Bus2=58_280 phases=3 Linecode=25_SAC_XC Length=0.14603 Units=m
New Line.LINE58_280 Bus1=58_273 Bus2=58_281 phases=3 Linecode=4_XSC Length=0.14892 Units=m
New Line.LINE58_281 Bus1=58_274 Bus2=58_282 phases=3 Linecode=4c_.1_SAC Length=2.4891 Units=m
New Line.LINE58_282 Bus1=58_274 Bus2=58_283 phases=3 Linecode=4c_.0225 Length=4.3015 Units=m
New Line.LINE58_283 Bus1=58_275 Bus2=58_284 phases=3 Linecode=25_SAC_XC Length=0.072837 Units=m
New Line.LINE58_284 Bus1=58_276 Bus2=58_285 phases=3 Linecode=4c_.1 Length=1.0069 Units=m
New Line.LINE58_285 Bus1=58_279 Bus2=58_286 phases=3 Linecode=4_XC Length=0.30877 Units=m
New Line.LINE58_286 Bus1=58_280 Bus2=58_287 phases=3 Linecode=25_SAC_XC Length=0.17491 Units=m
New Line.LINE58_287 Bus1=58_281 Bus2=58_288 phases=3 Linecode=4_XSC Length=0.14917 Units=m
New Line.LINE58_288 Bus1=58_283 Bus2=58_289 phases=3 Linecode=4c_.0225 Length=2.0727 Units=m
New Line.LINE58_289 Bus1=58_284 Bus2=58_290 phases=3 Linecode=25_SAC_XC Length=0.15484 Units=m
New Line.LINE58_290 Bus1=58_285 Bus2=58_291 phases=3 Linecode=4c_.1 Length=1.5906 Units=m
New Line.LINE58_291 Bus1=58_286 Bus2=58_292 phases=3 Linecode=4_XC Length=0.92663 Units=m
New Line.LINE58_292 Bus1=58_287 Bus2=58_293 phases=3 Linecode=25_SAC_XC Length=0.19244 Units=m
New Line.LINE58_293 Bus1=58_288 Bus2=58_294 phases=3 Linecode=4_XSC Length=0.14861 Units=m
New Line.LINE58_294 Bus1=58_289 Bus2=58_295 phases=3 Linecode=4c_.0225 Length=2.7592 Units=m
New Line.LINE58_295 Bus1=58_290 Bus2=58_296 phases=3 Linecode=25_SAC_XC Length=1.6473 Units=m
New Line.LINE58_296 Bus1=58_291 Bus2=58_297 phases=3 Linecode=4c_.1 Length=0.75802 Units=m
New Line.LINE58_297 Bus1=58_292 Bus2=58_298 phases=3 Linecode=4_XC Length=7.505 Units=m
New Line.LINE58_298 Bus1=58_293 Bus2=58_299 phases=3 Linecode=25_SAC_XC Length=0.28657 Units=m
New Line.LINE58_299 Bus1=58_294 Bus2=58_300 phases=3 Linecode=4_XSC Length=0.14927 Units=m
New Line.LINE58_300 Bus1=58_295 Bus2=58_301 phases=3 Linecode=2c_.0225 Length=6.0265 Units=m
New Line.LINE58_301 Bus1=58_295 Bus2=58_302 phases=3 Linecode=4c_.0225 Length=8.7181 Units=m
New Line.LINE58_302 Bus1=58_296 Bus2=58_303 phases=3 Linecode=25_SAC_XC Length=0.16551 Units=m
New Line.LINE58_303 Bus1=58_297 Bus2=58_304 phases=3 Linecode=4c_.1 Length=0.6407 Units=m
New Line.LINE58_304 Bus1=58_298 Bus2=58_305 phases=3 Linecode=4_XC Length=0.099637 Units=m
New Line.LINE58_305 Bus1=58_299 Bus2=58_306 phases=3 Linecode=25_SAC_XC Length=0.42731 Units=m
New Line.LINE58_306 Bus1=58_300 Bus2=58_307 phases=3 Linecode=4_XSC Length=0.73852 Units=m
New Line.LINE58_307 Bus1=58_301 Bus2=58_308 phases=3 Linecode=2c_.0225 Length=3.4989 Units=m
New Line.LINE58_308 Bus1=58_302 Bus2=58_309 phases=3 Linecode=2c_.0225 Length=6.1679 Units=m
New Line.LINE58_309 Bus1=58_302 Bus2=58_310 phases=3 Linecode=4c_.0225 Length=0.84424 Units=m
New Line.LINE58_310 Bus1=58_303 Bus2=58_311 phases=3 Linecode=25_SAC_XC Length=0.144 Units=m
New Line.LINE58_311 Bus1=58_304 Bus2=58_312 phases=3 Linecode=4c_.1 Length=0.51225 Units=m
New Line.LINE58_312 Bus1=58_305 Bus2=58_313 phases=3 Linecode=4_XC Length=0.1 Units=m
New Line.LINE58_313 Bus1=58_306 Bus2=58_314 phases=3 Linecode=25_SAC_XC Length=0.47321 Units=m
New Line.LINE58_314 Bus1=58_309 Bus2=58_315 phases=3 Linecode=2c_.0225 Length=2.7405 Units=m
New Line.LINE58_315 Bus1=58_310 Bus2=58_316 phases=3 Linecode=2c_.0225 Length=1.3133 Units=m
New Line.LINE58_316 Bus1=58_311 Bus2=58_317 phases=3 Linecode=25_SAC_XC Length=0.16177 Units=m
New Line.LINE58_317 Bus1=58_312 Bus2=58_318 phases=3 Linecode=4c_.1 Length=0.46691 Units=m
New Line.LINE58_318 Bus1=58_313 Bus2=58_319 phases=3 Linecode=4_XC Length=0.099639 Units=m
New Line.LINE58_319 Bus1=58_314 Bus2=58_320 phases=3 Linecode=25_SAC_XC Length=4.503 Units=m
New Line.LINE58_320 Bus1=58_316 Bus2=58_321 phases=3 Linecode=2c_.0225 Length=1.0051 Units=m
New Line.LINE58_321 Bus1=58_317 Bus2=58_322 phases=3 Linecode=25_SAC_XC Length=0.12491 Units=m
New Line.LINE58_322 Bus1=58_318 Bus2=58_323 phases=3 Linecode=4c_.1 Length=0.48166 Units=m
New Line.LINE58_323 Bus1=58_319 Bus2=58_324 phases=3 Linecode=4_XC Length=0.099367 Units=m
New Line.LINE58_324 Bus1=58_320 Bus2=58_325 phases=3 Linecode=25_SAC_XC Length=0.88792 Units=m
New Line.LINE58_325 Bus1=58_321 Bus2=58_326 phases=3 Linecode=2c_.0225 Length=4.9866 Units=m
New Line.LINE58_326 Bus1=58_322 Bus2=58_327 phases=3 Linecode=25_SAC_XC Length=0.065115 Units=m
New Line.LINE58_327 Bus1=58_323 Bus2=58_328 phases=3 Linecode=4c_.1 Length=0.40608 Units=m
New Line.LINE58_328 Bus1=58_324 Bus2=58_329 phases=3 Linecode=4_XC Length=0.099986 Units=m
New Line.LINE58_329 Bus1=58_325 Bus2=58_330 phases=3 Linecode=25_SAC_XC Length=0.23085 Units=m
New Line.LINE58_330 Bus1=58_327 Bus2=58_331 phases=3 Linecode=25_SAC_XC Length=0.13063 Units=m