New Line.LINE58_96 Bus1=58_92 Bus2=58_97 phases=3 Linecode=4c_.06 Length=0.49828 Units=m
New Line.LINE58_101 Bus1=58_97 Bus2=58_102 phases=3 Linecode=4c_.6 Length=10.0352 Units=m
New Line.LINE58_116 Bus1=58_112 Bus2=58_117 phases=3 Linecode=4c_.6 Length=10.1003 Units=m
New Line.LINE58_157 Bus1=58_152 Bus2=58_158 phases=3 Linecode=4c_.06 Length=8.5168 Units=m
New Line.LINE58_165 Bus1=58_158 Bus2=58_166 phases=3 Linecode=4c_.06 Length=10.6433 Units=m
New Line.LINE58_223 Bus1=58_219 Bus2=58_224 phases=3 Linecode=4c_.6 Length=0.60431 Units=m
New Line.LINE58_246 Bus1=58_244 Bus2=58_247 phases=3 Linecode=4c_.0225 Length=6.5819 Units=m
New Line.LINE58_262 Bus1=58_256 Bus2=58_263 phases=3 Linecode=4c_.0225 Length=1.7716 Units=m
New Line.LINE58_273 Bus1=58_267 Bus2=58_274 phases=3 Linecode=4c_.1_SAC Length=2.262 Units=m
New Line.LINE58_301 Bus1=58_295 Bus2=58_302 phases=3 Linecode=4c_.0225 Length=8.7181 Units=m
New Line.LINE58_309 Bus1=58_302 Bus2=58_310 phases=3 Linecode=4c_.0225 Length=0.84424 Units=m
New Line.LINE58_344 Bus1=58_340 Bus2=58_345 phases=3 Linecode=4c_.1 Length=6.3315 Units=m
New Line.LINE58_350 Bus1=58_345 Bus2=58_351 phases=3 Linecode=4c_.1 Length=11.3683 Units=m
New Line.LINE58_356 Bus1=58_351 Bus2=58_357 phases=3 Linecode=4c_.1 Length=8.3688 Units=m
New Line.LINE58_362 Bus1=58_357 Bus2=58_363 phases=3 Linecode=4c_.1 Length=0.94916 Units=m
New Line.LINE58_424 Bus1=58_423 Bus2=58_425 phases=3 Linecode=4c_.1_SAC Length=2.7313 Units=m
New Line.LINE58_427 Bus1=58_425 Bus2=58_428 phases=3 Linecode=4c_.1_SAC Length=7.6788 Units=m
New Line.LINE58_431 Bus1=58_428 Bus2=58_432 phases=3 Linecode=4c_.1_SAC Length=7.4917 Units=m
New Line.LINE58_Cmpd_0 Bus1=58_1 Bus2=58_43 phases=3 Linecode=4c_.1 Length=30.576469 Units=m
New Line.LINE58_Cmpd_1 Bus1=58_384 Bus2=58_423 phases=3 Linecode=4c_.1_SAC Length=10.85584 Units=m
New Line.LINE58_Cmpd_2 Bus1=58_267 Bus2=58_411 phases=3 Linecode=25_SAC_XC Length=19.825042 Units=m
New Line.LINE58_Cmpd_3 Bus1=58_112 Bus2=58_120 phases=3 Linecode=2c_.0225 Length=12.5184 Units=m
New Line.LINE58_Cmpd_4 Bus1=58_423 Bus2=58_454 phases=3 Linecode=25_SAC_XC Length=21.81979 Units=m
New Line.LINE58_Cmpd_5 Bus1=58_54 Bus2=58_340 phases=3 Linecode=4c_.1 Length=60.18239 Units=m
New Line.LINE58_Cmpd_6 Bus1=58_175 Bus2=58_208 phases=3 Linecode=4c_.6 Length=2.51932 Units=m
New Line.LINE58_Cmpd_7 Bus1=58_310 Bus2=58_326 phases=3 Linecode=2c_.0225 Length=7.305 Units=m
New Line.LINE58_Cmpd_8 Bus1=58_175 Bus2=58_201 phases=3 Linecode=2c_.0225 Length=15.1861 Units=m
New Line.LINE58_Cmpd_9 Bus1=58_54 Bus2=58_92 phases=3 Linecode=4c_.06 Length=29.97389 Units=m
New Line.LINE58_Cmpd_10 Bus1=58_253 Bus2=58_389 phases=3 Linecode=25_SAC_XC Length=21.61713 Units=m
New Line.LINE58_Cmpd_11 Bus1=58_274 Bus2=58_295 phases=3 Linecode=4c_.0225 Length=9.1334 Units=m
New Line.LINE58_Cmpd_12 Bus1=58_208 Bus2=58_245 phases=3 Linecode=2c_.0225 Length=15.67744 Units=m
New Line.LINE58_Cmpd_13 Bus1=58_384 Bus2=58_418 phases=3 Linecode=2c_.0225 Length=19.365293 Units=m
New Line.LINE58_Cmpd_14 Bus1=58_117 Bus2=58_125 phases=3 Linecode=2c_.0225 Length=13.152 Units=m
New Line.LINE58_Cmpd_15 Bus1=58_441 Bus2=58_458 phases=3 Linecode=4c_.1_SAC Length=5.1965 Units=m
New Line.LINE58_Cmpd_16 Bus1=58_179 Bus2=58_193 phases=3 Linecode=2c_.0225 Length=10.2799 Units=m
New Line.LINE58_Cmpd_17 Bus1=58_432 Bus2=58_441 phases=3 Linecode=4c_.1_SAC Length=9.6109 Units=m
New Line.LINE58_Cmpd_18 Bus1=58_224 Bus2=58_244 phases=3 Linecode=4c_.1_SAC Length=24.756956 Units=m
New Line.LINE58_Cmpd_19 Bus1=58_351 Bus2=58_361 phases=3 Linecode=25_SAC_XC Length=10.7104 Units=m
New Line.LINE58_Cmpd_20 Bus1=58_247 Bus2=58_261 phases=3 Linecode=2c_.0225 Length=14.2343 Units=m
New Line.LINE58_Cmpd_21 Bus1=58_97 Bus2=58_138 phases=3 Linecode=4c_.06 Length=7.82564 Units=m
New Line.LINE58_Cmpd_22 Bus1=58_302 Bus2=58_315 phases=3 Linecode=2c_.0225 Length=8.9084 Units=m
New Line.LINE58_Cmpd_23 Bus1=58_192 Bus2=58_204 phases=3 Linecode=2c_.0225 Length=9.5036 Units=m
New Line.LINE58_Cmpd_24 Bus1=58_140 Bus2=58_160 phases=3 Linecode=4c_.6 Length=6.88113 Units=m
New Line.LINE58_Cmpd_25 Bus1=58_102 Bus2=58_111 phases=3 Linecode=2c_.0225 Length=13.2947 Units=m
New Line.LINE58_Cmpd_26 Bus1=58_160 Bus2=58_190 phases=3 Linecode=2c_.0225 Length=14.6653 Units=m
New Line.LINE58_Cmpd_27 Bus1=58_43 Bus2=58_48 phases=3 Linecode=2c_.0225 Length=11.353 Units=m
New Line.LINE58_Cmpd_28 Bus1=58_458 Bus2=58_461 phases=3 Linecode=25_SAC_XC Length=12.2694 Units=m
New Line.LINE58_Cmpd_29 Bus1=58_363 Bus2=58_376 phases=3 Linecode=4c_.1_SAC Length=9.58513 Units=m
New Line.LINE58_Cmpd_30 Bus1=58_102 Bus2=58_112 phases=3 Linecode=4c_.6 Length=6.70266 Units=m
New Line.LINE58_Cmpd_31 Bus1=58_425 Bus2=58_430 phases=3 Linecode=25_SAC_XC Length=10.5927 Units=m
New Line.LINE58_Cmpd_32 Bus1=58_158 Bus2=58_171 phases=3 Linecode=2c_.0225 Length=9.8956 Units=m
New Line.LINE58_Cmpd_33 Bus1=58_208 Bus2=58_219 phases=3 Linecode=4c_.6 Length=3.79417 Units=m
New Line.LINE58_Cmpd_34 Bus1=58_160 Bus2=58_175 phases=3 Linecode=4c_.6 Length=5.2926 Units=m
New Line.LINE58_Cmpd_35 Bus1=58_138 Bus2=58_152 phases=3 Linecode=4c_.06 Length=9.1495 Units=m
New Line.LINE58_Cmpd_36 Bus1=58_295 Bus2=58_308 phases=3 Linecode=2c_.0225 Length=9.5254 Units=m
New Line.LINE58_Cmpd_37 Bus1=58_345 Bus2=58_355 phases=3 Linecode=25_SAC_XC Length=10.8898 Units=m
New Line.LINE58_Cmpd_38 Bus1=58_247 Bus2=58_256 phases=3 Linecode=4c_.0225 Length=9.8344 Units=m
New Line.LINE58_Cmpd_39 Bus1=58_428 Bus2=58_434 phases=3 Linecode=25_SAC_XC Length=20.7284 Units=m
New Line.LINE58_Cmpd_40 Bus1=58_376 Bus2=58_383 phases=3 Linecode=2c_.0225 Length=11.3191 Units=m
New Line.LINE58_Cmpd_41 Bus1=58_152 Bus2=58_164 phases=3 Linecode=2c_.0225 Length=11.0023 Units=m
New Line.LINE58_Cmpd_42 Bus1=58_140 Bus2=58_161 phases=3 Linecode=2c_.0225 Length=14.6382 Units=m
New Line.LINE58_Cmpd_43 Bus1=58_49 Bus2=58_55 phases=3 Linecode=2c_.0225 Length=12.5379 Units=m
New Line.LINE58_Cmpd_44 Bus1=58_256 Bus2=58_277 phases=3 Linecode=2c_.0225 Length=13.32489 Units=m
New Line.LINE58_Cmpd_45 Bus1=58_441 Bus2=58_446 phases=3 Linecode=25_SAC_XC Length=10.9437 Units=m
New Line.LINE58_Cmpd_46 Bus1=58_432 Bus2=58_438 phases=3 Linecode=25_SAC_XC Length=20.6466 Units=m
New Line.LINE58_Cmpd_47 Bus1=58_43 Bus2=58_49 phases=3 Linecode=4c_.1 Length=11.0555 Units=m
New Line.LINE58_Cmpd_48 Bus1=58_340 Bus2=58_349 phases=3 Linecode=25_SAC_XC Length=10.9595 Units=m
New Line.LINE58_Cmpd_49 Bus1=58_166 Bus2=58_179 phases=3 Linecode=4c_.06 Length=8.4142 Units=m
New Line.LINE58_Cmpd_50 Bus1=58_244 Bus2=58_253 phases=3 Linecode=4c_.1_SAC Length=2.80829 Units=m
New Line.LINE58_Cmpd_51 Bus1=58_219 Bus2=58_232 phases=3 Linecode=2c_.0225 Length=12.4223 Units=m
New Line.LINE58_Cmpd_52 Bus1=58_131 Bus2=58_148 phases=3 Linecode=2c_.0225 Length=14.0606 Units=m
New Line.LINE58_Cmpd_53 Bus1=58_357 Bus2=58_366 phases=3 Linecode=25_SAC_XC Length=11.3866 Units=m
New Line.LINE58_Cmpd_54 Bus1=58_138 Bus2=58_150 phases=3 Linecode=2c_.0225 Length=10.4697 Units=m
New Line.LINE58_Cmpd_55 Bus1=58_117 Bus2=58_131 phases=3 Linecode=4c_.6 Length=8.1468 Units=m
New Line.LINE58_Cmpd_56 Bus1=58_376 Bus2=58_384 phases=3 Linecode=4c_.1_SAC Length=2.63382 Units=m
New Line.LINE58_Cmpd_57 Bus1=58_263 Bus2=58_278 phases=3 Linecode=2c_.0225 Length=6.8206 Units=m
New Line.LINE58_Cmpd_58 Bus1=58_49 Bus2=58_54 phases=3 Linecode=4c_.1 Length=3.1699 Units=m
New Line.LINE58_Cmpd_59 Bus1=58_253 Bus2=58_267 phases=3 Linecode=4c_.1_SAC Length=5.64887 Units=m
New Line.LINE58_Cmpd_60 Bus1=58_179 Bus2=58_192 phases=3 Linecode=4c_.06 Length=9.7267 Units=m
New Line.LINE58_Cmpd_61 Bus1=58_92 Bus2=58_100 phases=3 Linecode=2c_.0225 Length=12.8173 Units=m
New Line.LINE58_Cmpd_62 Bus1=58_131 Bus2=58_140 phases=3 Linecode=4c_.6 Length=10.3781 Units=m
New Line.LINE58_Cmpd_63 Bus1=58_166 Bus2=58_178 phases=3 Linecode=2c_.0225 Length=10.1601 Units=m
