New Line.LINE96 Bus1=92 Bus2=97 phases=3 Linecode=4c_.06 Length=0.49828 Units=m
New Line.LINE101 Bus1=97 Bus2=102 phases=3 Linecode=4c_.6 Length=10.0352 Units=m
New Line.LINE116 Bus1=112 Bus2=117 phases=3 Linecode=4c_.6 Length=10.1003 Units=m
New Line.LINE157 Bus1=152 Bus2=158 phases=3 Linecode=4c_.06 Length=8.5168 Units=m
New Line.LINE165 Bus1=158 Bus2=166 phases=3 Linecode=4c_.06 Length=10.6433 Units=m
New Line.LINE184 Bus1=179 Bus2=185 phases=3 Linecode=4c_.06 Length=8.0542 Units=m
New Line.LINE191 Bus1=185 Bus2=192 phases=3 Linecode=4c_.06 Length=1.6725 Units=m
New Line.LINE198 Bus1=192 Bus2=199 phases=3 Linecode=2c_.0225 Length=4.7314 Units=m
New Line.LINE203 Bus1=199 Bus2=204 phases=3 Linecode=2c_.0225 Length=4.7722 Units=m
New Line.LINE223 Bus1=219 Bus2=224 phases=3 Linecode=4c_.6 Length=0.60431 Units=m
New Line.LINE228 Bus1=224 Bus2=229 phases=3 Linecode=4c_.1_SAC Length=7.8925 Units=m
New Line.LINE232 Bus1=229 Bus2=233 phases=3 Linecode=4c_.1_SAC Length=0.040556 Units=m
New Line.LINE236 Bus1=233 Bus2=237 phases=3 Linecode=4c_.1_SAC Length=8.217 Units=m
New Line.LINE240 Bus1=237 Bus2=241 phases=3 Linecode=4c_.1_SAC Length=5.9479 Units=m
New Line.LINE243 Bus1=241 Bus2=244 phases=3 Linecode=4c_.1_SAC Length=2.659 Units=m
New Line.LINE246 Bus1=244 Bus2=247 phases=3 Linecode=4c_.0225 Length=6.5819 Units=m
New Line.LINE262 Bus1=256 Bus2=263 phases=3 Linecode=4c_.0225 Length=1.7716 Units=m
New Line.LINE269 Bus1=263 Bus2=270 phases=3 Linecode=2c_.0225 Length=2.2247 Units=m
New Line.LINE273 Bus1=267 Bus2=274 phases=3 Linecode=4c_.1_SAC Length=2.262 Units=m
New Line.LINE277 Bus1=270 Bus2=278 phases=3 Linecode=2c_.0225 Length=4.5959 Units=m
New Line.LINE282 Bus1=274 Bus2=283 phases=3 Linecode=4c_.0225 Length=4.3015 Units=m
New Line.LINE288 Bus1=283 Bus2=289 phases=3 Linecode=4c_.0225 Length=2.0727 Units=m
New Line.LINE294 Bus1=289 Bus2=295 phases=3 Linecode=4c_.0225 Length=2.7592 Units=m
New Line.LINE301 Bus1=295 Bus2=302 phases=3 Linecode=4c_.0225 Length=8.7181 Units=m
New Line.LINE309 Bus1=302 Bus2=310 phases=3 Linecode=4c_.0225 Length=0.84424 Units=m
New Line.LINE315 Bus1=310 Bus2=316 phases=3 Linecode=2c_.0225 Length=1.3133 Units=m
New Line.LINE320 Bus1=316 Bus2=321 phases=3 Linecode=2c_.0225 Length=1.0051 Units=m
New Line.LINE325 Bus1=321 Bus2=326 phases=3 Linecode=2c_.0225 Length=4.9866 Units=m
New Line.LINE344 Bus1=340 Bus2=345 phases=3 Linecode=4c_.1 Length=6.3315 Units=m
New Line.LINE350 Bus1=345 Bus2=351 phases=3 Linecode=4c_.1 Length=11.3683 Units=m
New Line.LINE356 Bus1=351 Bus2=357 phases=3 Linecode=4c_.1 Length=8.3688 Units=m
New Line.LINE362 Bus1=357 Bus2=363 phases=3 Linecode=4c_.1 Length=0.94916 Units=m
New Line.LINE366 Bus1=363 Bus2=367 phases=3 Linecode=4c_.1_SAC Length=0.95153 Units=m
New Line.LINE369 Bus1=367 Bus2=370 phases=3 Linecode=4c_.1_SAC Length=1.4602 Units=m
New Line.LINE372 Bus1=370 Bus2=373 phases=3 Linecode=4c_.1_SAC Length=1.8759 Units=m
New Line.LINE375 Bus1=373 Bus2=376 phases=3 Linecode=4c_.1_SAC Length=5.2975 Units=m
New Line.LINE424 Bus1=423 Bus2=425 phases=3 Linecode=4c_.1_SAC Length=2.7313 Units=m
New Line.LINE427 Bus1=425 Bus2=428 phases=3 Linecode=4c_.1_SAC Length=7.6788 Units=m
New Line.LINE431 Bus1=428 Bus2=432 phases=3 Linecode=4c_.1_SAC Length=7.4917 Units=m
New Line.LINE443 Bus1=441 Bus2=444 phases=3 Linecode=4c_.1_SAC Length=0.84264 Units=m
New Line.LINE446 Bus1=444 Bus2=447 phases=3 Linecode=4c_.1_SAC Length=0.36713 Units=m
New Line.LINE448 Bus1=447 Bus2=449 phases=3 Linecode=4c_.1_SAC Length=0.49625 Units=m
New Line.LINE450 Bus1=449 Bus2=451 phases=3 Linecode=4c_.1_SAC Length=0.447 Units=m
New Line.LINE452 Bus1=451 Bus2=453 phases=3 Linecode=4c_.1_SAC Length=0.60084 Units=m
New Line.LINE454 Bus1=453 Bus2=455 phases=3 Linecode=4c_.1_SAC Length=0.78977 Units=m
New Line.LINE455 Bus1=455 Bus2=456 phases=3 Linecode=4c_.1_SAC Length=0.48732 Units=m
New Line.LINE456 Bus1=456 Bus2=457 phases=3 Linecode=4c_.1_SAC Length=0.65744 Units=m
New Line.LINE457 Bus1=457 Bus2=458 phases=3 Linecode=4c_.1_SAC Length=0.50811 Units=m
New Line.LINE458 Bus1=458 Bus2=459 phases=3 Linecode=25_SAC_XC Length=7.8685 Units=m
New Line.LINE460 Bus1=459 Bus2=461 phases=3 Linecode=25_SAC_XC Length=4.4009 Units=m
New Line.LINECmpd_0 Bus1=54 Bus2=340 phases=3 Linecode=4c_.1 Length=60.18239 Units=m
New Line.LINECmpd_1 Bus1=423 Bus2=454 phases=3 Linecode=25_SAC_XC Length=21.81979 Units=m
New Line.LINECmpd_2 Bus1=267 Bus2=411 phases=3 Linecode=25_SAC_XC Length=19.825042 Units=m
New Line.LINECmpd_3 Bus1=425 Bus2=430 phases=3 Linecode=25_SAC_XC Length=10.5927 Units=m
New Line.LINECmpd_4 Bus1=1 Bus2=43 phases=3 Linecode=4c_.1 Length=30.576469 Units=m
New Line.LINECmpd_5 Bus1=384 Bus2=418 phases=3 Linecode=2c_.0225 Length=19.365293 Units=m
New Line.LINECmpd_6 Bus1=253 Bus2=389 phases=3 Linecode=25_SAC_XC Length=21.61713 Units=m
New Line.LINECmpd_7 Bus1=175 Bus2=201 phases=3 Linecode=2c_.0225 Length=15.1861 Units=m
New Line.LINECmpd_8 Bus1=219 Bus2=232 phases=3 Linecode=2c_.0225 Length=12.4223 Units=m
New Line.LINECmpd_9 Bus1=208 Bus2=245 phases=3 Linecode=2c_.0225 Length=15.67744 Units=m
New Line.LINECmpd_10 Bus1=244 Bus2=253 phases=3 Linecode=4c_.1_SAC Length=2.80829 Units=m
New Line.LINECmpd_11 Bus1=175 Bus2=208 phases=3 Linecode=4c_.6 Length=2.51932 Units=m
New Line.LINECmpd_12 Bus1=160 Bus2=190 phases=3 Linecode=2c_.0225 Length=14.6653 Units=m
New Line.LINECmpd_13 Bus1=428 Bus2=434 phases=3 Linecode=25_SAC_XC Length=20.7284 Units=m
New Line.LINECmpd_14 Bus1=102 Bus2=112 phases=3 Linecode=4c_.6 Length=6.70266 Units=m
New Line.LINECmpd_15 Bus1=138 Bus2=150 phases=3 Linecode=2c_.0225 Length=10.4697 Units=m
New Line.LINECmpd_16 Bus1=97 Bus2=138 phases=3 Linecode=4c_.06 Length=7.82564 Units=m
New Line.LINECmpd_17 Bus1=54 Bus2=92 phases=3 Linecode=4c_.06 Length=29.97389 Units=m
New Line.LINECmpd_18 Bus1=140 Bus2=161 phases=3 Linecode=2c_.0225 Length=14.6382 Units=m
New Line.LINECmpd_19 Bus1=357 Bus2=366 phases=3 Linecode=25_SAC_XC Length=11.3866 Units=m
New Line.LINECmpd_20 Bus1=208 Bus2=219 phases=3 Linecode=4c_.6 Length=3.79417 Units=m
New Line.LINECmpd_21 Bus1=432 Bus2=441 phases=3 Linecode=4c_.1_SAC Length=9.6109 Units=m
New Line.LINECmpd_22 Bus1=131 Bus2=148 phases=3 Linecode=2c_.0225 Length=14.0606 Units=m
New Line.LINECmpd_23 Bus1=117 Bus2=131 phases=3 Linecode=4c_.6 Length=8.1468 Units=m
New Line.LINECmpd_24 Bus1=179 Bus2=193 phases=3 Linecode=2c_.0225 Length=10.2799 Units=m
New Line.LINECmpd_25 Bus1=256 Bus2=277 phases=3 Linecode=2c_.0225 Length=13.32489 Units=m
New Line.LINECmpd_26 Bus1=92 Bus2=100 phases=3 Linecode=2c_.0225 Length=12.8173 Units=m
New Line.LINECmpd_27 Bus1=384 Bus2=423 phases=3 Linecode=4c_.1_SAC Length=10.85584 Units=m
New Line.LINECmpd_28 Bus1=247 Bus2=261 phases=3 Linecode=2c_.0225 Length=14.2343 Units=m
New Line.LINECmpd_29 Bus1=138 Bus2=152 phases=3 Linecode=4c_.06 Length=9.1495 Units=m
New Line.LINECmpd_30 Bus1=49 Bus2=54 phases=3 Linecode=4c_.1 Length=3.1699 Units=m
New Line.LINECmpd_31 Bus1=160 Bus2=175 phases=3 Linecode=4c_.6 Length=5.2926 Units=m
New Line.LINECmpd_32 Bus1=351 Bus2=361 phases=3 Linecode=25_SAC_XC Length=10.7104 Units=m
New Line.LINECmpd_33 Bus1=376 Bus2=383 phases=3 Linecode=2c_.0225 Length=11.3191 Units=m
New Line.LINECmpd_34 Bus1=247 Bus2=256 phases=3 Linecode=4c_.0225 Length=9.8344 Units=m
New Line.LINECmpd_35 Bus1=295 Bus2=308 phases=3 Linecode=2c_.0225 Length=9.5254 Units=m
New Line.LINECmpd_36 Bus1=49 Bus2=55 phases=3 Linecode=2c_.0225 Length=12.5379 Units=m
New Line.LINECmpd_37 Bus1=376 Bus2=384 phases=3 Linecode=4c_.1_SAC Length=2.63382 Units=m
New Line.LINECmpd_38 Bus1=43 Bus2=48 phases=3 Linecode=2c_.0225 Length=11.353 Units=m
New Line.LINECmpd_39 Bus1=253 Bus2=267 phases=3 Linecode=4c_.1_SAC Length=5.64887 Units=m
New Line.LINECmpd_40 Bus1=166 Bus2=179 phases=3 Linecode=4c_.06 Length=8.4142 Units=m
New Line.LINECmpd_41 Bus1=112 Bus2=120 phases=3 Linecode=2c_.0225 Length=12.5184 Units=m
New Line.LINECmpd_42 Bus1=441 Bus2=446 phases=3 Linecode=25_SAC_XC Length=10.9437 Units=m
New Line.LINECmpd_43 Bus1=432 Bus2=438 phases=3 Linecode=25_SAC_XC Length=20.6466 Units=m
New Line.LINECmpd_44 Bus1=166 Bus2=178 phases=3 Linecode=2c_.0225 Length=10.1601 Units=m
New Line.LINECmpd_45 Bus1=340 Bus2=349 phases=3 Linecode=25_SAC_XC Length=10.9595 Units=m
New Line.LINECmpd_46 Bus1=43 Bus2=49 phases=3 Linecode=4c_.1 Length=11.0555 Units=m
New Line.LINECmpd_47 Bus1=302 Bus2=315 phases=3 Linecode=2c_.0225 Length=8.9084 Units=m
New Line.LINECmpd_48 Bus1=140 Bus2=160 phases=3 Linecode=4c_.6 Length=6.88113 Units=m
New Line.LINECmpd_49 Bus1=117 Bus2=125 phases=3 Linecode=2c_.0225 Length=13.152 Units=m
New Line.LINECmpd_50 Bus1=102 Bus2=111 phases=3 Linecode=2c_.0225 Length=13.2947 Units=m
New Line.LINECmpd_51 Bus1=131 Bus2=140 phases=3 Linecode=4c_.6 Length=10.3781 Units=m
New Line.LINECmpd_52 Bus1=345 Bus2=355 phases=3 Linecode=25_SAC_XC Length=10.8898 Units=m
New Line.LINECmpd_53 Bus1=158 Bus2=171 phases=3 Linecode=2c_.0225 Length=9.8956 Units=m
New Line.LINECmpd_54 Bus1=152 Bus2=164 phases=3 Linecode=2c_.0225 Length=11.0023 Units=m
