New Load.LOAD58_1 Phases=1 Bus1=58_48.3 kV=0.23 kW=1 PF=0.95
New Load.LOAD58_2 Phases=1 Bus1=58_55.1 kV=0.23 kW=1 PF=0.95
New Load.LOAD58_3 Phases=1 Bus1=58_100.1 kV=0.23 kW=1 PF=0.95
New Load.LOAD58_4 Phases=1 Bus1=58_111.2 kV=0.23 kW=1 PF=0.95
New Load.LOAD58_5 Phases=1 Bus1=58_120.3 kV=0.23 kW=1 PF=0.95
New Load.LOAD58_6 Phases=1 Bus1=58_125.2 kV=0.23 kW=1 PF=0.95
New Load.LOAD58_7 Phases=1 Bus1=58_148.1 kV=0.23 kW=1 PF=0.95
New Load.LOAD58_8 Phases=1 Bus1=58_150.1 kV=0.23 kW=1 PF=0.95
New Load.LOAD58_9 Phases=1 Bus1=58_161.1 kV=0.23 kW=1 PF=0.95
New Load.LOAD58_10 Phases=1 Bus1=58_164.3 kV=0.23 kW=1 PF=0.95
New Load.LOAD58_11 Phases=1 Bus1=58_171.1 kV=0.23 kW=1 PF=0.95
New Load.LOAD58_12 Phases=1 Bus1=58_178.1 kV=0.23 kW=1 PF=0.95
New Load.LOAD58_13 Phases=1 Bus1=58_190.1 kV=0.23 kW=1 PF=0.95
New Load.LOAD58_14 Phases=1 Bus1=58_193.2 kV=0.23 kW=1 PF=0.95
New Load.LOAD58_15 Phases=1 Bus1=58_201.2 kV=0.23 kW=1 PF=0.95
New Load.LOAD58_16 Phases=1 Bus1=58_204.3 kV=0.23 kW=1 PF=0.95
New Load.LOAD58_17 Phases=1 Bus1=58_232.3 kV=0.23 kW=1 PF=0.95
New Load.LOAD58_18 Phases=1 Bus1=58_245.1 kV=0.23 kW=1 PF=0.95
New Load.LOAD58_19 Phases=1 Bus1=58_261.3 kV=0.23 kW=1 PF=0.95
New Load.LOAD58_20 Phases=1 Bus1=58_277.2 kV=0.23 kW=1 PF=0.95
New Load.LOAD58_21 Phases=1 Bus1=58_278.1 kV=0.23 kW=1 PF=0.95
New Load.LOAD58_22 Phases=1 Bus1=58_308.1 kV=0.23 kW=1 PF=0.95
New Load.LOAD58_23 Phases=1 Bus1=58_315.2 kV=0.23 kW=1 PF=0.95
New Load.LOAD58_24 Phases=1 Bus1=58_326.3 kV=0.23 kW=1 PF=0.95
New Load.LOAD58_25 Phases=1 Bus1=58_349.1 kV=0.23 kW=1 PF=0.95
New Load.LOAD58_26 Phases=1 Bus1=58_355.2 kV=0.23 kW=1 PF=0.95
New Load.LOAD58_27 Phases=1 Bus1=58_361.3 kV=0.23 kW=1 PF=0.95
New Load.LOAD58_28 Phases=1 Bus1=58_366.1 kV=0.23 kW=1 PF=0.95
New Load.LOAD58_29 Phases=1 Bus1=58_383.2 kV=0.23 kW=1 PF=0.95
New Load.LOAD58_30 Phases=1 Bus1=58_389.2 kV=0.23 kW=1 PF=0.95
New Load.LOAD58_31 Phases=1 Bus1=58_411.1 kV=0.23 kW=1 PF=0.95
New Load.LOAD58_32 Phases=1 Bus1=58_418.3 kV=0.23 kW=1 PF=0.95
New Load.LOAD58_33 Phases=1 Bus1=58_430.2 kV=0.23 kW=1 PF=0.95
New Load.LOAD58_34 Phases=1 Bus1=58_434.3 kV=0.23 kW=1 PF=0.95
New Load.LOAD58_35 Phases=1 Bus1=58_438.1 kV=0.23 kW=1 PF=0.95
New Load.LOAD58_36 Phases=1 Bus1=58_446.2 kV=0.23 kW=1 PF=0.95
New Load.LOAD58_37 Phases=1 Bus1=58_454.1 kV=0.23 kW=1 PF=0.95
New Load.LOAD58_38 Phases=1 Bus1=58_461.3 kV=0.23 kW=1 PF=0.95
