New Line.LINE57_1 Bus1=57_1 Bus2=57_2 phases=3 Linecode=4c_.1 Length=1.0316 Units=m
New Line.LINE57_2 Bus1=57_2 Bus2=57_3 phases=3 Linecode=4c_.1 Length=0.041232 Units=m
New Line.LINE57_3 Bus1=57_3 Bus2=57_4 phases=3 Linecode=4c_.1 Length=0.039999 Units=m
New Line.LINE57_4 Bus1=57_4 Bus2=57_5 phases=3 Linecode=4c_.1 Length=0.04123 Units=m
New Line.LINE57_5 Bus1=57_5 Bus2=57_6 phases=3 Linecode=4c_.1 Length=0.041232 Units=m
New Line.LINE57_6 Bus1=57_6 Bus2=57_7 phases=3 Linecode=4c_.1 Length=0.044721 Units=m
New Line.LINE57_7 Bus1=57_7 Bus2=57_8 phases=3 Linecode=4c_.1 Length=0.042428 Units=m
New Line.LINE57_8 Bus1=57_8 Bus2=57_9 phases=3 Linecode=4c_.1 Length=0.050001 Units=m
New Line.LINE57_9 Bus1=57_9 Bus2=57_10 phases=3 Linecode=4c_.1 Length=0.06708 Units=m
New Line.LINE57_10 Bus1=57_10 Bus2=57_11 phases=3 Linecode=4c_.1 Length=1.2618 Units=m
New Line.LINE57_11 Bus1=57_11 Bus2=57_12 phases=3 Linecode=4c_.1 Length=0.053854 Units=m
New Line.LINE57_12 Bus1=57_12 Bus2=57_13 phases=3 Linecode=4c_.1 Length=0.044721 Units=m
New Line.LINE57_13 Bus1=57_13 Bus2=57_14 phases=3 Linecode=4c_.1 Length=0.05 Units=m
New Line.LINE57_14 Bus1=57_14 Bus2=57_15 phases=3 Linecode=4c_.1 Length=0.042425 Units=m
New Line.LINE57_15 Bus1=57_15 Bus2=57_16 phases=3 Linecode=4c_.1 Length=0.050001 Units=m
New Line.LINE57_16 Bus1=57_16 Bus2=57_17 phases=3 Linecode=4c_.1 Length=0.058309 Units=m
New Line.LINE57_17 Bus1=57_17 Bus2=57_18 phases=3 Linecode=4c_.1 Length=0.064031 Units=m
New Line.LINE57_18 Bus1=57_18 Bus2=57_19 phases=3 Linecode=4c_.1 Length=0.076159 Units=m
New Line.LINE57_19 Bus1=57_19 Bus2=57_20 phases=3 Linecode=4c_.1 Length=0.070711 Units=m
New Line.LINE57_20 Bus1=57_20 Bus2=57_21 phases=3 Linecode=4c_.1 Length=0.66611 Units=m
New Line.LINE57_21 Bus1=57_21 Bus2=57_22 phases=3 Linecode=4c_.1 Length=0.082462 Units=m
New Line.LINE57_22 Bus1=57_22 Bus2=57_23 phases=3 Linecode=4c_.1 Length=0.076159 Units=m
New Line.LINE57_23 Bus1=57_23 Bus2=57_24 phases=3 Linecode=4c_.1 Length=0.094341 Units=m
New Line.LINE57_24 Bus1=57_24 Bus2=57_25 phases=3 Linecode=4c_.1 Length=0.086022 Units=m
New Line.LINE57_25 Bus1=57_25 Bus2=57_26 phases=3 Linecode=4c_.1 Length=1.4993 Units=m
New Line.LINE57_26 Bus1=57_26 Bus2=57_27 phases=3 Linecode=4c_.1 Length=0.092195 Units=m
New Line.LINE57_27 Bus1=57_27 Bus2=57_28 phases=3 Linecode=4c_.1 Length=0.10296 Units=m
New Line.LINE57_28 Bus1=57_28 Bus2=57_29 phases=3 Linecode=4c_.1 Length=0.11402 Units=m
New Line.LINE57_29 Bus1=57_29 Bus2=57_30 phases=3 Linecode=4c_.1 Length=0.069999 Units=m
New Line.LINE57_30 Bus1=57_30 Bus2=57_31 phases=3 Linecode=4c_.1 Length=1.5105 Units=m
New Line.LINE57_31 Bus1=57_31 Bus2=57_32 phases=3 Linecode=4c_.1 Length=1.0966 Units=m
New Line.LINE57_32 Bus1=57_32 Bus2=57_33 phases=3 Linecode=4c_.1 Length=1.0098 Units=m
New Line.LINE57_33 Bus1=57_33 Bus2=57_34 phases=3 Linecode=4c_.1 Length=1.1915 Units=m
New Line.LINE57_34 Bus1=57_34 Bus2=57_35 phases=3 Linecode=4c_.1 Length=1.1344 Units=m
New Line.LINE57_35 Bus1=57_35 Bus2=57_36 phases=3 Linecode=4c_.1 Length=1.005 Units=m
New Line.LINE57_36 Bus1=57_36 Bus2=57_37 phases=3 Linecode=4c_.1 Length=2.6994 Units=m
New Line.LINE57_37 Bus1=57_37 Bus2=57_38 phases=3 Linecode=4c_.1 Length=3.1004 Units=m
New Line.LINE57_38 Bus1=57_38 Bus2=57_39 phases=3 Linecode=4c_.1 Length=0.60671 Units=m
New Line.LINE57_39 Bus1=57_39 Bus2=57_40 phases=3 Linecode=4c_.1 Length=0.5413 Units=m
New Line.LINE57_40 Bus1=57_40 Bus2=57_41 phases=3 Linecode=4c_.1 Length=0.32062 Units=m
New Line.LINE57_41 Bus1=57_41 Bus2=57_42 phases=3 Linecode=4c_.1 Length=0.18111 Units=m
New Line.LINE57_42 Bus1=57_42 Bus2=57_43 phases=3 Linecode=4c_.1 Length=0.15133 Units=m
New Line.LINE57_43 Bus1=57_43 Bus2=57_44 phases=3 Linecode=4c_.1 Length=0.19698 Units=m
New Line.LINE57_44 Bus1=57_44 Bus2=57_45 phases=3 Linecode=4c_.1 Length=0.20616 Units=m
New Line.LINE57_45 Bus1=57_45 Bus2=57_46 phases=3 Linecode=4c_.1 Length=0.17029 Units=m
New Line.LINE57_46 Bus1=57_46 Bus2=57_47 phases=3 Linecode=4c_.1 Length=0.14422 Units=m
New Line.LINE57_47 Bus1=57_47 Bus2=57_48 phases=3 Linecode=4c_.1 Length=0.29682 Units=m
New Line.LINE57_48 Bus1=57_48 Bus2=57_49 phases=3 Linecode=4c_.1 Length=0.15232 Units=m
New Line.LINE57_49 Bus1=57_49 Bus2=57_50 phases=3 Linecode=4c_.1 Length=0.20881 Units=m
New Line.LINE57_50 Bus1=57_50 Bus2=57_51 phases=3 Linecode=4c_.1 Length=2.1122 Units=m
New Line.LINE57_51 Bus1=57_51 Bus2=57_52 phases=3 Linecode=4c_.1 Length=12.52 Units=m
New Line.LINE57_52 Bus1=57_52 Bus2=57_53 phases=3 Linecode=4c_.1 Length=10.5984 Units=m
New Line.LINE57_53 Bus1=57_52 Bus2=57_54 phases=3 Linecode=2c_.0225 Length=7.1814 Units=m
New Line.LINE57_54 Bus1=57_53 Bus2=57_55 phases=3 Linecode=4c_.1 Length=6.5193 Units=m
New Line.LINE57_55 Bus1=57_53 Bus2=57_56 phases=3 Linecode=2c_.0225 Length=7.2596 Units=m
New Line.LINE57_56 Bus1=57_54 Bus2=57_57 phases=3 Linecode=2c_.0225 Length=4.2105 Units=m
New Line.LINE57_57 Bus1=57_55 Bus2=57_58 phases=3 Linecode=4c_.1 Length=4.5494 Units=m
New Line.LINE57_58 Bus1=57_55 Bus2=57_59 phases=3 Linecode=2c_.0225 Length=7.5713 Units=m
New Line.LINE57_59 Bus1=57_56 Bus2=57_60 phases=3 Linecode=2c_.0225 Length=3.867 Units=m
New Line.LINE57_60 Bus1=57_58 Bus2=57_61 phases=3 Linecode=4c_.1 Length=5.6416 Units=m
New Line.LINE57_61 Bus1=57_58 Bus2=57_62 phases=3 Linecode=4c_.1 Length=0.20809 Units=m
New Line.LINE57_62 Bus1=57_59 Bus2=57_63 phases=3 Linecode=2c_.0225 Length=4.5273 Units=m
New Line.LINE57_63 Bus1=57_61 Bus2=57_64 phases=3 Linecode=4c_.1 Length=5.7073 Units=m
New Line.LINE57_64 Bus1=57_61 Bus2=57_65 phases=3 Linecode=2c_.0225 Length=7.2623 Units=m
New Line.LINE57_65 Bus1=57_62 Bus2=57_66 phases=3 Linecode=4c_.1 Length=0.25456 Units=m
New Line.LINE57_66 Bus1=57_64 Bus2=57_67 phases=3 Linecode=4c_.1 Length=0.72801 Units=m
New Line.LINE57_67 Bus1=57_64 Bus2=57_68 phases=3 Linecode=2c_.0225 Length=11.0414 Units=m
New Line.LINE57_68 Bus1=57_65 Bus2=57_69 phases=3 Linecode=2c_.0225 Length=4.2755 Units=m
New Line.LINE57_69 Bus1=57_66 Bus2=57_70 phases=3 Linecode=4c_.1 Length=0.22472 Units=m
New Line.LINE57_70 Bus1=57_67 Bus2=57_71 phases=3 Linecode=4c_.1 Length=3.7145 Units=m
New Line.LINE57_71 Bus1=57_67 Bus2=57_72 phases=3 Linecode=2c_.0225 Length=7.2221 Units=m
New Line.LINE57_72 Bus1=57_68 Bus2=57_73 phases=3 Linecode=2c_.0225 Length=9.3432 Units=m
New Line.LINE57_73 Bus1=57_68 Bus2=57_74 phases=3 Linecode=2c_.0225 Length=3.3644 Units=m
New Line.LINE57_74 Bus1=57_70 Bus2=57_75 phases=3 Linecode=4c_.1 Length=0.15033 Units=m
New Line.LINE57_75 Bus1=57_71 Bus2=57_76 phases=3 Linecode=4c_.1 Length=0.15133 Units=m
New Line.LINE57_76 Bus1=57_72 Bus2=57_77 phases=3 Linecode=2c_.0225 Length=4.0464 Units=m
New Line.LINE57_77 Bus1=57_73 Bus2=57_78 phases=3 Linecode=2c_.0225 Length=0.16279 Units=m
New Line.LINE57_78 Bus1=57_74 Bus2=57_79 phases=3 Linecode=2c_.0225 Length=5.6125 Units=m
New Line.LINE57_79 Bus1=57_75 Bus2=57_80 phases=3 Linecode=4c_.1 Length=0.20616 Units=m
New Line.LINE57_80 Bus1=57_76 Bus2=57_81 phases=3 Linecode=4c_.1 Length=1.3393 Units=m
New Line.LINE57_81 Bus1=57_78 Bus2=57_82 phases=3 Linecode=2c_.0225 Length=0.23537 Units=m
New Line.LINE57_82 Bus1=57_80 Bus2=57_83 phases=3 Linecode=4c_.1 Length=0.15556 Units=m
New Line.LINE57_83 Bus1=57_81 Bus2=57_84 phases=3 Linecode=4c_.1 Length=5.0124 Units=m
New Line.LINE57_84 Bus1=57_82 Bus2=57_85 phases=3 Linecode=2c_.0225 Length=0.23 Units=m
New Line.LINE57_85 Bus1=57_83 Bus2=57_86 phases=3 Linecode=4c_.1 Length=0.28203 Units=m
New Line.LINE57_86 Bus1=57_84 Bus2=57_87 phases=3 Linecode=4c_.1 Length=1.5316 Units=m
New Line.LINE57_87 Bus1=57_84 Bus2=57_88 phases=3 Linecode=2c_.0225 Length=7.3228 Units=m
New Line.LINE57_88 Bus1=57_85 Bus2=57_89 phases=3 Linecode=2c_.0225 Length=0.19925 Units=m
New Line.LINE57_89 Bus1=57_86 Bus2=57_90 phases=3 Linecode=4c_.1 Length=0.33925 Units=m
New Line.LINE57_90 Bus1=57_87 Bus2=57_91 phases=3 Linecode=4c_.1 Length=1.6566 Units=m
New Line.LINE57_91 Bus1=57_88 Bus2=57_92 phases=3 Linecode=2c_.0225 Length=4.3703 Units=m
New Line.LINE57_92 Bus1=57_89 Bus2=57_93 phases=3 Linecode=2c_.0225 Length=0.20248 Units=m
New Line.LINE57_93 Bus1=57_90 Bus2=57_94 phases=3 Linecode=4c_.1 Length=0.2477 Units=m
New Line.LINE57_94 Bus1=57_91 Bus2=57_95 phases=3 Linecode=4c_.1 Length=2.9435 Units=m
New Line.LINE57_95 Bus1=57_93 Bus2=57_96 phases=3 Linecode=2c_.0225 Length=0.1985 Units=m
New Line.LINE57_96 Bus1=57_94 Bus2=57_97 phases=3 Linecode=4c_.1 Length=0.11483 Units=m
New Line.LINE57_97 Bus1=57_95 Bus2=57_98 phases=3 Linecode=4c_.1 Length=0.86267 Units=m
New Line.LINE57_98 Bus1=57_95 Bus2=57_99 phases=3 Linecode=2c_.0225 Length=7.1046 Units=m
New Line.LINE57_99 Bus1=57_96 Bus2=57_100 phases=3 Linecode=2c_.0225 Length=0.20809 Units=m
New Line.LINE57_100 Bus1=57_97 Bus2=57_101 phases=3 Linecode=4c_.1 Length=0.35653 Units=m
New Line.LINE57_101 Bus1=57_98 Bus2=57_102 phases=3 Linecode=4c_.1 Length=1.3931 Units=m
New Line.LINE57_102 Bus1=57_99 Bus2=57_103 phases=3 Linecode=2c_.0225 Length=4.7303 Units=m
New Line.LINE57_103 Bus1=57_100 Bus2=57_104 phases=3 Linecode=2c_.0225 Length=0.2508 Units=m
New Line.LINE57_104 Bus1=57_101 Bus2=57_105 phases=3 Linecode=4_XSC Length=0.3515 Units=m
New Line.LINE57_105 Bus1=57_102 Bus2=57_106 phases=3 Linecode=4c_.1 Length=0.74614 Units=m
New Line.LINE57_106 Bus1=57_104 Bus2=57_107 phases=3 Linecode=2c_.0225 Length=0.31016 Units=m
New Line.LINE57_107 Bus1=57_105 Bus2=57_108 phases=3 Linecode=4_XSC Length=0.60837 Units=m
New Line.LINE57_108 Bus1=57_106 Bus2=57_109 phases=3 Linecode=4c_.1 Length=1.5022 Units=m
New Line.LINE57_109 Bus1=57_107 Bus2=57_110 phases=3 Linecode=2c_.0225 Length=0.47802 Units=m
New Line.LINE57_110 Bus1=57_108 Bus2=57_111 phases=3 Linecode=4_XSC Length=3.1272 Units=m
New Line.LINE57_111 Bus1=57_109 Bus2=57_112 phases=3 Linecode=4c_.1 Length=0.75562 Units=m
New Line.LINE57_112 Bus1=57_110 Bus2=57_113 phases=3 Linecode=2c_.0225 Length=1.6085 Units=m
New Line.LINE57_113 Bus1=57_111 Bus2=57_114 phases=3 Linecode=4_XSC Length=1.9077 Units=m
New Line.LINE57_114 Bus1=57_112 Bus2=57_115 phases=3 Linecode=4c_.1 Length=1.1217 Units=m
New Line.LINE57_115 Bus1=57_113 Bus2=57_116 phases=3 Linecode=2c_.0225 Length=5.1605 Units=m
New Line.LINE57_116 Bus1=57_114 Bus2=57_117 phases=3 Linecode=4_XSC Length=1.9937 Units=m
New Line.LINE57_117 Bus1=57_115 Bus2=57_118 phases=3 Linecode=4c_.1 Length=0.66287 Units=m
New Line.LINE57_118 Bus1=57_115 Bus2=57_119 phases=3 Linecode=4c_.1 Length=0.19925 Units=m
New Line.LINE57_119 Bus1=57_117 Bus2=57_120 phases=3 Linecode=4_XSC Length=0.79845 Units=m
New Line.LINE57_120 Bus1=57_118 Bus2=57_121 phases=3 Linecode=4c_.1 Length=0.47265 Units=m
New Line.LINE57_121 Bus1=57_119 Bus2=57_122 phases=3 Linecode=4c_.1 Length=0.18111 Units=m
New Line.LINE57_122 Bus1=57_121 Bus2=57_123 phases=3 Linecode=4c_.1 Length=2.6601 Units=m
New Line.LINE57_123 Bus1=57_122 Bus2=57_124 phases=3 Linecode=4c_.1 Length=0.14213 Units=m
New Line.LINE57_124 Bus1=57_123 Bus2=57_125 phases=3 Linecode=4c_.1 Length=0.76059 Units=m
New Line.LINE57_125 Bus1=57_123 Bus2=57_126 phases=3 Linecode=2c_.0225 Length=8.3901 Units=m
New Line.LINE57_126 Bus1=57_124 Bus2=57_127 phases=3 Linecode=4c_.1 Length=0.13416 Units=m
New Line.LINE57_127 Bus1=57_125 Bus2=57_128 phases=3 Linecode=4c_.1 Length=1.03 Units=m
New Line.LINE57_128 Bus1=57_126 Bus2=57_129 phases=3 Linecode=2c_.0225 Length=3.1896 Units=m
New Line.LINE57_129 Bus1=57_127 Bus2=57_130 phases=3 Linecode=4c_.1 Length=0.13038 Units=m
New Line.LINE57_130 Bus1=57_128 Bus2=57_131 phases=3 Linecode=4c_.1 Length=5.3121 Units=m
New Line.LINE57_131 Bus1=57_130 Bus2=57_132 phases=3 Linecode=4c_.1 Length=0.16124 Units=m
New Line.LINE57_132 Bus1=57_131 Bus2=57_133 phases=3 Linecode=4c_.1 Length=1.61 Units=m
New Line.LINE57_133 Bus1=57_132 Bus2=57_134 phases=3 Linecode=4c_.1 Length=0.12433 Units=m
New Line.LINE57_134 Bus1=57_133 Bus2=57_135 phases=3 Linecode=4c_.1 Length=0.92006 Units=m
New Line.LINE57_135 Bus1=57_134 Bus2=57_136 phases=3 Linecode=4c_.1 Length=0.13462 Units=m
New Line.LINE57_136 Bus1=57_135 Bus2=57_137 phases=3 Linecode=2c_.0225 Length=0.18357 Units=m
New Line.LINE57_137 Bus1=57_135 Bus2=57_138 phases=3 Linecode=4c_.1 Length=1.6205 Units=m
New Line.LINE57_138 Bus1=57_136 Bus2=57_139 phases=3 Linecode=4c_.1 Length=0.16226 Units=m
New Line.LINE57_139 Bus1=57_137 Bus2=57_140 phases=3 Linecode=2c_.0225 Length=0.18028 Units=m
New Line.LINE57_140 Bus1=57_138 Bus2=57_141 phases=3 Linecode=4c_.1 Length=1.251 Units=m
New Line.LINE57_141 Bus1=57_139 Bus2=57_142 phases=3 Linecode=4c_.1 Length=0.31325 Units=m
New Line.LINE57_142 Bus1=57_140 Bus2=57_143 phases=3 Linecode=2c_.0225 Length=0.18385 Units=m
New Line.LINE57_143 Bus1=57_141 Bus2=57_144 phases=3 Linecode=4c_.1 Length=0.17029 Units=m
New Line.LINE57_144 Bus1=57_142 Bus2=57_145 phases=3 Linecode=4c_.1 Length=1.022 Units=m
New Line.LINE57_145 Bus1=57_143 Bus2=57_146 phases=3 Linecode=2c_.0225 Length=0.18439 Units=m
New Line.LINE57_146 Bus1=57_144 Bus2=57_147 phases=3 Linecode=4_XSC Length=0.19082 Units=m
New Line.LINE57_147 Bus1=57_144 Bus2=57_148 phases=3 Linecode=4c_.1 Length=1.642 Units=m
New Line.LINE57_148 Bus1=57_145 Bus2=57_149 phases=3 Linecode=4c_.1 Length=2.1365 Units=m
New Line.LINE57_149 Bus1=57_146 Bus2=57_150 phases=3 Linecode=2c_.0225 Length=0.22672 Units=m
New Line.LINE57_150 Bus1=57_147 Bus2=57_151 phases=3 Linecode=4_XSC Length=0.18974 Units=m
New Line.LINE57_151 Bus1=57_148 Bus2=57_152 phases=3 Linecode=4c_.1 Length=3.8601 Units=m
New Line.LINE57_152 Bus1=57_149 Bus2=57_153 phases=3 Linecode=4c_.1 Length=5.9321 Units=m
New Line.LINE57_153 Bus1=57_150 Bus2=57_154 phases=3 Linecode=2c_.0225 Length=0.29 Units=m
New Line.LINE57_154 Bus1=57_151 Bus2=57_155 phases=3 Linecode=4_XSC Length=0.18788 Units=m
New Line.LINE57_155 Bus1=57_152 Bus2=57_156 phases=3 Linecode=2c_.0225 Length=0.079998 Units=m
New Line.LINE57_156 Bus1=57_152 Bus2=57_157 phases=3 Linecode=4c_.1 Length=1.8904 Units=m
New Line.LINE57_157 Bus1=57_153 Bus2=57_158 phases=3 Linecode=4c_.1 Length=0.9745 Units=m
New Line.LINE57_158 Bus1=57_154 Bus2=57_159 phases=3 Linecode=2c_.0225 Length=0.26907 Units=m
New Line.LINE57_159 Bus1=57_155 Bus2=57_160 phases=3 Linecode=4_XSC Length=0.19209 Units=m
New Line.LINE57_160 Bus1=57_156 Bus2=57_161 phases=3 Linecode=2c_.0225 Length=0.24739 Units=m
New Line.LINE57_161 Bus1=57_157 Bus2=57_162 phases=3 Linecode=4c_.1 Length=0.53151 Units=m
New Line.LINE57_162 Bus1=57_159 Bus2=57_163 phases=3 Linecode=2c_.0225 Length=0.34713 Units=m
New Line.LINE57_163 Bus1=57_160 Bus2=57_164 phases=3 Linecode=4_XSC Length=0.18439 Units=m
New Line.LINE57_164 Bus1=57_161 Bus2=57_165 phases=3 Linecode=2c_.0225 Length=0.35693 Units=m
New Line.LINE57_165 Bus1=57_162 Bus2=57_166 phases=3 Linecode=4c_.1 Length=3.5705 Units=m
New Line.LINE57_166 Bus1=57_163 Bus2=57_167 phases=3 Linecode=2c_.0225 Length=0.3821 Units=m
New Line.LINE57_167 Bus1=57_164 Bus2=57_168 phases=3 Linecode=4_XSC Length=0.19235 Units=m
New Line.LINE57_168 Bus1=57_165 Bus2=57_169 phases=3 Linecode=2c_.0225 Length=0.39812 Units=m
New Line.LINE57_169 Bus1=57_166 Bus2=57_170 phases=3 Linecode=4c_.1 Length=0.65031 Units=m
New Line.LINE57_170 Bus1=57_167 Bus2=57_171 phases=3 Linecode=2c_.0225 Length=0.25495 Units=m
New Line.LINE57_171 Bus1=57_168 Bus2=57_172 phases=3 Linecode=4_XSC Length=0.18028 Units=m
New Line.LINE57_172 Bus1=57_169 Bus2=57_173 phases=3 Linecode=2c_.0225 Length=0.32388 Units=m
New Line.LINE57_173 Bus1=57_170 Bus2=57_174 phases=3 Linecode=4c_.1 Length=2.2033 Units=m
New Line.LINE57_174 Bus1=57_171 Bus2=57_175 phases=3 Linecode=2c_.0225 Length=0.38949 Units=m
New Line.LINE57_175 Bus1=57_172 Bus2=57_176 phases=3 Linecode=4_XSC Length=0.19105 Units=m
New Line.LINE57_176 Bus1=57_173 Bus2=57_177 phases=3 Linecode=2c_.0225 Length=0.72173 Units=m
New Line.LINE57_177 Bus1=57_174 Bus2=57_178 phases=3 Linecode=2c_.0225 Length=0.16 Units=m
New Line.LINE57_178 Bus1=57_174 Bus2=57_179 phases=3 Linecode=4c_.1 Length=4.9174 Units=m
New Line.LINE57_179 Bus1=57_175 Bus2=57_180 phases=3 Linecode=2c_.0225 Length=0.4982 Units=m
New Line.LINE57_180 Bus1=57_176 Bus2=57_181 phases=3 Linecode=4_XSC Length=0.19026 Units=m
New Line.LINE57_181 Bus1=57_177 Bus2=57_182 phases=3 Linecode=2c_.0225 Length=0.33136 Units=m
New Line.LINE57_182 Bus1=57_178 Bus2=57_183 phases=3 Linecode=2c_.0225 Length=0.12649 Units=m
New Line.LINE57_183 Bus1=57_179 Bus2=57_184 phases=3 Linecode=4c_.1 Length=5.6232 Units=m
New Line.LINE57_184 Bus1=57_180 Bus2=57_185 phases=3 Linecode=2c_.0225 Length=0.4046 Units=m
New Line.LINE57_185 Bus1=57_182 Bus2=57_186 phases=3 Linecode=2c_.0225 Length=0.43186 Units=m
New Line.LINE57_186 Bus1=57_183 Bus2=57_187 phases=3 Linecode=2c_.0225 Length=0.19235 Units=m
New Line.LINE57_187 Bus1=57_184 Bus2=57_188 phases=3 Linecode=2c_.0225 Length=12.0346 Units=m
New Line.LINE57_188 Bus1=57_184 Bus2=57_189 phases=3 Linecode=4c_.1 Length=0.49023 Units=m
New Line.LINE57_189 Bus1=57_185 Bus2=57_190 phases=3 Linecode=2c_.0225 Length=0.55471 Units=m
New Line.LINE57_190 Bus1=57_186 Bus2=57_191 phases=3 Linecode=2c_.0225 Length=0.51196 Units=m
New Line.LINE57_191 Bus1=57_187 Bus2=57_192 phases=3 Linecode=2c_.0225 Length=0.18028 Units=m
New Line.LINE57_192 Bus1=57_188 Bus2=57_193 phases=3 Linecode=2c_.0225 Length=2.6055 Units=m
New Line.LINE57_193 Bus1=57_189 Bus2=57_194 phases=3 Linecode=4c_.1 Length=4.6318 Units=m
New Line.LINE57_194 Bus1=57_190 Bus2=57_195 phases=3 Linecode=2c_.0225 Length=0.43932 Units=m
New Line.LINE57_195 Bus1=57_191 Bus2=57_196 phases=3 Linecode=2c_.0225 Length=0.20616 Units=m
New Line.LINE57_196 Bus1=57_192 Bus2=57_197 phases=3 Linecode=2c_.0225 Length=0.17889 Units=m
New Line.LINE57_197 Bus1=57_194 Bus2=57_198 phases=3 Linecode=4c_.1 Length=1.2106 Units=m
New Line.LINE57_198 Bus1=57_195 Bus2=57_199 phases=3 Linecode=2c_.0225 Length=0.5201 Units=m
New Line.LINE57_199 Bus1=57_196 Bus2=57_200 phases=3 Linecode=2c_.0225 Length=1.0337 Units=m
New Line.LINE57_200 Bus1=57_197 Bus2=57_201 phases=3 Linecode=2c_.0225 Length=0.17888 Units=m
New Line.LINE57_201 Bus1=57_198 Bus2=57_202 phases=3 Linecode=4_XC Length=0.35649 Units=m
New Line.LINE57_202 Bus1=57_198 Bus2=57_203 phases=3 Linecode=4c_.1 Length=3.5228 Units=m
New Line.LINE57_203 Bus1=57_199 Bus2=57_204 phases=3 Linecode=2c_.0225 Length=0.30414 Units=m
New Line.LINE57_204 Bus1=57_200 Bus2=57_205 phases=3 Linecode=2c_.0225 Length=1.0066 Units=m
New Line.LINE57_205 Bus1=57_201 Bus2=57_206 phases=3 Linecode=2c_.0225 Length=0.30017 Units=m
New Line.LINE57_206 Bus1=57_202 Bus2=57_207 phases=3 Linecode=4_XC Length=0.37643 Units=m
New Line.LINE57_207 Bus1=57_203 Bus2=57_208 phases=3 Linecode=25_SAC_XC Length=8.9669 Units=m
New Line.LINE57_208 Bus1=57_203 Bus2=57_209 phases=3 Linecode=4c_.1 Length=7.2754 Units=m
New Line.LINE57_209 Bus1=57_204 Bus2=57_210 phases=3 Linecode=2c_.0225 Length=0.34409 Units=m
New Line.LINE57_210 Bus1=57_205 Bus2=57_211 phases=3 Linecode=2c_.0225 Length=0.89051 Units=m
New Line.LINE57_211 Bus1=57_206 Bus2=57_212 phases=3 Linecode=2c_.0225 Length=0.24413 Units=m
New Line.LINE57_212 Bus1=57_207 Bus2=57_213 phases=3 Linecode=4_XC Length=0.37215 Units=m
New Line.LINE57_213 Bus1=57_208 Bus2=57_214 phases=3 Linecode=25_SAC_XC Length=3.3997 Units=m
New Line.LINE57_214 Bus1=57_209 Bus2=57_215 phases=3 Linecode=25_SAC_XC Length=10.9848 Units=m
New Line.LINE57_215 Bus1=57_209 Bus2=57_216 phases=3 Linecode=4c_.1 Length=4.0931 Units=m
New Line.LINE57_216 Bus1=57_210 Bus2=57_217 phases=3 Linecode=2c_.0225 Length=0.41617 Units=m
New Line.LINE57_217 Bus1=57_211 Bus2=57_218 phases=3 Linecode=2c_.0225 Length=1.0187 Units=m
New Line.LINE57_218 Bus1=57_212 Bus2=57_219 phases=3 Linecode=2c_.0225 Length=0.28844 Units=m
New Line.LINE57_219 Bus1=57_213 Bus2=57_220 phases=3 Linecode=4_XC Length=0.36401 Units=m
New Line.LINE57_220 Bus1=57_215 Bus2=57_221 phases=3 Linecode=25_SAC_XC Length=1.7413 Units=m
New Line.LINE57_221 Bus1=57_216 Bus2=57_222 phases=3 Linecode=4c_.1 Length=2.3105 Units=m
New Line.LINE57_222 Bus1=57_217 Bus2=57_223 phases=3 Linecode=2c_.0225 Length=0.33121 Units=m
New Line.LINE57_223 Bus1=57_218 Bus2=57_224 phases=3 Linecode=2c_.0225 Length=3.8444 Units=m
New Line.LINE57_224 Bus1=57_219 Bus2=57_225 phases=3 Linecode=2c_.0225 Length=0.36056 Units=m
New Line.LINE57_225 Bus1=57_220 Bus2=57_226 phases=3 Linecode=4_XC Length=0.37855 Units=m
New Line.LINE57_226 Bus1=57_222 Bus2=57_227 phases=3 Linecode=4c_.1 Length=7.8929 Units=m
New Line.LINE57_227 Bus1=57_222 Bus2=57_228 phases=3 Linecode=4c_.1 Length=2.3105 Units=m
New Line.LINE57_228 Bus1=57_223 Bus2=57_229 phases=3 Linecode=2c_.0225 Length=0.35847 Units=m
New Line.LINE57_229 Bus1=57_224 Bus2=57_230 phases=3 Linecode=2c_.0225 Length=3.967 Units=m
New Line.LINE57_230 Bus1=57_225 Bus2=57_231 phases=3 Linecode=2c_.0225 Length=0.33287 Units=m
New Line.LINE57_231 Bus1=57_226 Bus2=57_232 phases=3 Linecode=4_XC Length=0.37054 Units=m
New Line.LINE57_232 Bus1=57_227 Bus2=57_233 phases=3 Linecode=4c_.1 Length=0.24083 Units=m
New Line.LINE57_233 Bus1=57_228 Bus2=57_234 phases=3 Linecode=4c_.1 Length=3.4832 Units=m
New Line.LINE57_234 Bus1=57_229 Bus2=57_235 phases=3 Linecode=2c_.0225 Length=0.33106 Units=m
New Line.LINE57_235 Bus1=57_231 Bus2=57_236 phases=3 Linecode=2c_.0225 Length=0.22023 Units=m
New Line.LINE57_236 Bus1=57_233 Bus2=57_237 phases=3 Linecode=4c_.1 Length=0.28601 Units=m
New Line.LINE57_237 Bus1=57_234 Bus2=57_238 phases=3 Linecode=25_SAC_XC Length=10.6323 Units=m
New Line.LINE57_238 Bus1=57_234 Bus2=57_239 phases=3 Linecode=4c_.1 Length=0.30265 Units=m
New Line.LINE57_239 Bus1=57_235 Bus2=57_240 phases=3 Linecode=2c_.0225 Length=0.34176 Units=m
New Line.LINE57_240 Bus1=57_236 Bus2=57_241 phases=3 Linecode=2c_.0225 Length=0.29682 Units=m
New Line.LINE57_241 Bus1=57_237 Bus2=57_242 phases=3 Linecode=4c_.1 Length=0.0728 Units=m
New Line.LINE57_242 Bus1=57_238 Bus2=57_243 phases=3 Linecode=25_SAC_XC Length=2.7084 Units=m
New Line.LINE57_243 Bus1=57_239 Bus2=57_244 phases=3 Linecode=4c_.1 Length=0.19925 Units=m
New Line.LINE57_244 Bus1=57_240 Bus2=57_245 phases=3 Linecode=2c_.0225 Length=0.3985 Units=m
New Line.LINE57_245 Bus1=57_241 Bus2=57_246 phases=3 Linecode=2c_.0225 Length=0.37202 Units=m
New Line.LINE57_246 Bus1=57_244 Bus2=57_247 phases=3 Linecode=4c_.1 Length=0.20249 Units=m
New Line.LINE57_247 Bus1=57_245 Bus2=57_248 phases=3 Linecode=2c_.0225 Length=1.3494 Units=m
New Line.LINE57_248 Bus1=57_246 Bus2=57_249 phases=3 Linecode=2c_.0225 Length=0.24839 Units=m
New Line.LINE57_249 Bus1=57_247 Bus2=57_250 phases=3 Linecode=4c_.1 Length=0.2126 Units=m
New Line.LINE57_250 Bus1=57_248 Bus2=57_251 phases=3 Linecode=2c_.0225 Length=4.1133 Units=m
New Line.LINE57_251 Bus1=57_249 Bus2=57_252 phases=3 Linecode=2c_.0225 Length=0.26926 Units=m
New Line.LINE57_252 Bus1=57_250 Bus2=57_253 phases=3 Linecode=4c_.1 Length=0.15 Units=m
New Line.LINE57_253 Bus1=57_252 Bus2=57_254 phases=3 Linecode=2c_.0225 Length=0.3467 Units=m
New Line.LINE57_254 Bus1=57_253 Bus2=57_255 phases=3 Linecode=4c_.1 Length=0.23087 Units=m
New Line.LINE57_255 Bus1=57_254 Bus2=57_256 phases=3 Linecode=2c_.0225 Length=0.25942 Units=m
New Line.LINE57_256 Bus1=57_255 Bus2=57_257 phases=3 Linecode=4c_.1 Length=0.35171 Units=m
New Line.LINE57_257 Bus1=57_255 Bus2=57_258 phases=3 Linecode=4c_.1 Length=0.58117 Units=m
New Line.LINE57_258 Bus1=57_256 Bus2=57_259 phases=3 Linecode=2c_.0225 Length=0.22825 Units=m
New Line.LINE57_259 Bus1=57_257 Bus2=57_260 phases=3 Linecode=4c_.1 Length=0.3544 Units=m
New Line.LINE57_260 Bus1=57_258 Bus2=57_261 phases=3 Linecode=4c_.1 Length=0.072139 Units=m
New Line.LINE57_261 Bus1=57_259 Bus2=57_262 phases=3 Linecode=2c_.0225 Length=0.29967 Units=m
New Line.LINE57_262 Bus1=57_260 Bus2=57_263 phases=3 Linecode=25_SAC_XC Length=10.1225 Units=m
New Line.LINE57_263 Bus1=57_260 Bus2=57_264 phases=3 Linecode=4c_.1 Length=5.7822 Units=m
New Line.LINE57_264 Bus1=57_261 Bus2=57_265 phases=3 Linecode=4c_.1 Length=0.071028 Units=m
New Line.LINE57_265 Bus1=57_262 Bus2=57_266 phases=3 Linecode=2c_.0225 Length=0.3759 Units=m
New Line.LINE57_266 Bus1=57_263 Bus2=57_267 phases=3 Linecode=25_SAC_XC Length=3.7345 Units=m
New Line.LINE57_267 Bus1=57_264 Bus2=57_268 phases=3 Linecode=4c_.1 Length=4.088 Units=m
New Line.LINE57_268 Bus1=57_265 Bus2=57_269 phases=3 Linecode=4c_.1 Length=0.071556 Units=m
New Line.LINE57_269 Bus1=57_266 Bus2=57_270 phases=3 Linecode=2c_.0225 Length=0.44011 Units=m
New Line.LINE57_270 Bus1=57_268 Bus2=57_271 phases=3 Linecode=25_SAC_XC Length=10.4222 Units=m
New Line.LINE57_271 Bus1=57_268 Bus2=57_272 phases=3 Linecode=4c_.1 Length=4.9782 Units=m
New Line.LINE57_272 Bus1=57_269 Bus2=57_273 phases=3 Linecode=4c_.1 Length=0.071567 Units=m
New Line.LINE57_273 Bus1=57_270 Bus2=57_274 phases=3 Linecode=2c_.0225 Length=0.28792 Units=m
New Line.LINE57_274 Bus1=57_271 Bus2=57_275 phases=3 Linecode=25_SAC_XC Length=4.477 Units=m
New Line.LINE57_275 Bus1=57_272 Bus2=57_276 phases=3 Linecode=4c_.1 Length=0.27295 Units=m
New Line.LINE57_276 Bus1=57_273 Bus2=57_277 phases=3 Linecode=4c_.1 Length=0.071449 Units=m
New Line.LINE57_277 Bus1=57_274 Bus2=57_278 phases=3 Linecode=2c_.0225 Length=0.2816 Units=m
New Line.LINE57_278 Bus1=57_276 Bus2=57_279 phases=3 Linecode=4c_.1 Length=0.27018 Units=m
New Line.LINE57_279 Bus1=57_277 Bus2=57_280 phases=3 Linecode=4c_.1 Length=0.071176 Units=m
New Line.LINE57_280 Bus1=57_278 Bus2=57_281 phases=3 Linecode=2c_.0225 Length=0.3544 Units=m
New Line.LINE57_281 Bus1=57_279 Bus2=57_282 phases=3 Linecode=4c_.1 Length=0.22361 Units=m
New Line.LINE57_282 Bus1=57_280 Bus2=57_283 phases=3 Linecode=4c_.1 Length=0.071805 Units=m
New Line.LINE57_283 Bus1=57_281 Bus2=57_284 phases=3 Linecode=2c_.0225 Length=1.7998 Units=m
New Line.LINE57_284 Bus1=57_282 Bus2=57_285 phases=3 Linecode=4c_.1 Length=0.16553 Units=m
New Line.LINE57_285 Bus1=57_283 Bus2=57_286 phases=3 Linecode=4c_.1 Length=0.31112 Units=m
New Line.LINE57_286 Bus1=57_284 Bus2=57_287 phases=3 Linecode=2c_.0225 Length=4.9206 Units=m
New Line.LINE57_287 Bus1=57_285 Bus2=57_288 phases=3 Linecode=4c_.1 Length=0.19105 Units=m
New Line.LINE57_288 Bus1=57_286 Bus2=57_289 phases=3 Linecode=4c_.1 Length=0.099999 Units=m
New Line.LINE57_289 Bus1=57_288 Bus2=57_290 phases=3 Linecode=4c_.1 Length=0.19723 Units=m
New Line.LINE57_290 Bus1=57_289 Bus2=57_291 phases=3 Linecode=4c_.1 Length=0.092477 Units=m
New Line.LINE57_291 Bus1=57_290 Bus2=57_292 phases=3 Linecode=4c_.1 Length=0.33241 Units=m
New Line.LINE57_292 Bus1=57_291 Bus2=57_293 phases=3 Linecode=4c_.1 Length=0.093193 Units=m
New Line.LINE57_293 Bus1=57_292 Bus2=57_294 phases=3 Linecode=25_SAC_XC Length=5.1681 Units=m
New Line.LINE57_294 Bus1=57_292 Bus2=57_295 phases=3 Linecode=4c_.1 Length=2.0375 Units=m
New Line.LINE57_295 Bus1=57_293 Bus2=57_296 phases=3 Linecode=4c_.1 Length=0.09335 Units=m
New Line.LINE57_296 Bus1=57_294 Bus2=57_297 phases=3 Linecode=25_SAC_XC Length=4.805 Units=m
New Line.LINE57_297 Bus1=57_295 Bus2=57_298 phases=3 Linecode=4c_.1 Length=6.3739 Units=m
New Line.LINE57_298 Bus1=57_296 Bus2=57_299 phases=3 Linecode=4c_.1 Length=0.092654 Units=m
New Line.LINE57_299 Bus1=57_298 Bus2=57_300 phases=3 Linecode=25_SAC_XC Length=5.6477 Units=m
New Line.LINE57_300 Bus1=57_298 Bus2=57_301 phases=3 Linecode=4c_.1 Length=1.722 Units=m
New Line.LINE57_301 Bus1=57_299 Bus2=57_302 phases=3 Linecode=4c_.1 Length=0.092704 Units=m
New Line.LINE57_302 Bus1=57_300 Bus2=57_303 phases=3 Linecode=25_SAC_XC Length=4.6451 Units=m
New Line.LINE57_303 Bus1=57_301 Bus2=57_304 phases=3 Linecode=4c_.1 Length=7.726 Units=m
New Line.LINE57_304 Bus1=57_302 Bus2=57_305 phases=3 Linecode=4c_.1 Length=0.093172 Units=m
New Line.LINE57_305 Bus1=57_304 Bus2=57_306 phases=3 Linecode=25_SAC_XC Length=5.6867 Units=m
New Line.LINE57_306 Bus1=57_304 Bus2=57_307 phases=3 Linecode=4c_.1 Length=6.6734 Units=m
New Line.LINE57_307 Bus1=57_305 Bus2=57_308 phases=3 Linecode=4c_.1 Length=0.093005 Units=m
New Line.LINE57_308 Bus1=57_306 Bus2=57_309 phases=3 Linecode=25_SAC_XC Length=4.6687 Units=m
New Line.LINE57_309 Bus1=57_307 Bus2=57_310 phases=3 Linecode=25_SAC_XC Length=6.1571 Units=m
New Line.LINE57_310 Bus1=57_307 Bus2=57_311 phases=3 Linecode=4c_.1 Length=6.6734 Units=m
New Line.LINE57_311 Bus1=57_308 Bus2=57_312 phases=3 Linecode=4c_.1 Length=0.093381 Units=m
New Line.LINE57_312 Bus1=57_310 Bus2=57_313 phases=3 Linecode=25_SAC_XC Length=5.9635 Units=m
New Line.LINE57_313 Bus1=57_312 Bus2=57_314 phases=3 Linecode=4c_.1 Length=0.092477 Units=m
New Line.LINE57_314 Bus1=57_314 Bus2=57_315 phases=3 Linecode=4c_.1 Length=0.093493 Units=m
New Line.LINE57_315 Bus1=57_315 Bus2=57_316 phases=3 Linecode=4c_.1 Length=0.092657 Units=m
New Line.LINE57_316 Bus1=57_316 Bus2=57_317 phases=3 Linecode=4c_.1 Length=0.092655 Units=m
New Line.LINE57_317 Bus1=57_317 Bus2=57_318 phases=3 Linecode=4c_.1 Length=0.093107 Units=m
New Line.LINE57_318 Bus1=57_318 Bus2=57_319 phases=3 Linecode=4c_.1 Length=0.093172 Units=m
