New Load.LOAD57_1 Phases=1 Bus1=57_57.1 kV=0.23 kW=1 PF=0.95
New Load.LOAD57_2 Phases=1 Bus1=57_60.2 kV=0.23 kW=1 PF=0.95
New Load.LOAD57_3 Phases=1 Bus1=57_63.3 kV=0.23 kW=1 PF=0.95
New Load.LOAD57_4 Phases=1 Bus1=57_69.1 kV=0.23 kW=1 PF=0.95
New Load.LOAD57_5 Phases=1 Bus1=57_77.3 kV=0.23 kW=1 PF=0.95
New Load.LOAD57_6 Phases=1 Bus1=57_79.1 kV=0.23 kW=1 PF=0.95
New Load.LOAD57_7 Phases=1 Bus1=57_92.2 kV=0.23 kW=1 PF=0.95
New Load.LOAD57_8 Phases=1 Bus1=57_103.3 kV=0.23 kW=1 PF=0.95
New Load.LOAD57_9 Phases=1 Bus1=57_116.1 kV=0.23 kW=1 PF=0.95
New Load.LOAD57_10 Phases=1 Bus1=57_129.1 kV=0.23 kW=1 PF=0.95
New Load.LOAD57_11 Phases=1 Bus1=57_193.1 kV=0.23 kW=1 PF=0.95
New Load.LOAD57_12 Phases=1 Bus1=57_214.2 kV=0.23 kW=1 PF=0.95
New Load.LOAD57_13 Phases=1 Bus1=57_221.3 kV=0.23 kW=1 PF=0.95
New Load.LOAD57_14 Phases=1 Bus1=57_230.2 kV=0.23 kW=1 PF=0.95
New Load.LOAD57_15 Phases=1 Bus1=57_243.1 kV=0.23 kW=1 PF=0.95
New Load.LOAD57_16 Phases=1 Bus1=57_251.1 kV=0.23 kW=1 PF=0.95
New Load.LOAD57_17 Phases=1 Bus1=57_267.2 kV=0.23 kW=1 PF=0.95
New Load.LOAD57_18 Phases=1 Bus1=57_275.3 kV=0.23 kW=1 PF=0.95
New Load.LOAD57_19 Phases=1 Bus1=57_287.3 kV=0.23 kW=1 PF=0.95
New Load.LOAD57_20 Phases=1 Bus1=57_297.1 kV=0.23 kW=1 PF=0.95
New Load.LOAD57_21 Phases=1 Bus1=57_303.2 kV=0.23 kW=1 PF=0.95
New Load.LOAD57_22 Phases=1 Bus1=57_309.3 kV=0.23 kW=1 PF=0.95
New Load.LOAD57_23 Phases=1 Bus1=57_313.1 kV=0.23 kW=1 PF=0.95
