New Line.LINE106_1 Bus1=106_1 Bus2=106_2 phases=3 Linecode=3c_300_SAC_XC Length=0.82412 Units=m
New Line.LINE106_2 Bus1=106_2 Bus2=106_3 phases=3 Linecode=3c_300_SAC_XC Length=0.09188 Units=m
New Line.LINE106_3 Bus1=106_3 Bus2=106_4 phases=3 Linecode=3c_300_SAC_XC Length=0.12053 Units=m
New Line.LINE106_4 Bus1=106_4 Bus2=106_5 phases=3 Linecode=3c_300_SAC_XC Length=1.8529 Units=m
New Line.LINE106_5 Bus1=106_5 Bus2=106_6 phases=3 Linecode=3c_300_SAC_XC Length=0.054708 Units=m
New Line.LINE106_6 Bus1=106_6 Bus2=106_7 phases=3 Linecode=3c_300_SAC_XC Length=0.037643 Units=m
New Line.LINE106_7 Bus1=106_7 Bus2=106_8 phases=3 Linecode=3c_300_SAC_XC Length=0.037337 Units=m
New Line.LINE106_8 Bus1=106_8 Bus2=106_9 phases=3 Linecode=3c_300_SAC_XC Length=0.038052 Units=m
New Line.LINE106_9 Bus1=106_9 Bus2=106_10 phases=3 Linecode=3c_300_SAC_XC Length=0.038079 Units=m
New Line.LINE106_10 Bus1=106_10 Bus2=106_11 phases=3 Linecode=3c_300_SAC_XC Length=0.037577 Units=m
New Line.LINE106_11 Bus1=106_11 Bus2=106_12 phases=3 Linecode=3c_300_SAC_XC Length=0.038013 Units=m
New Line.LINE106_12 Bus1=106_12 Bus2=106_13 phases=3 Linecode=3c_300_SAC_XC Length=0.03677 Units=m
New Line.LINE106_13 Bus1=106_13 Bus2=106_14 phases=3 Linecode=3c_300_SAC_XC Length=0.038275 Units=m
New Line.LINE106_14 Bus1=106_14 Bus2=106_15 phases=3 Linecode=3c_300_SAC_XC Length=0.037578 Units=m
New Line.LINE106_15 Bus1=106_15 Bus2=106_16 phases=3 Linecode=3c_300_SAC_XC Length=2.3102 Units=m
New Line.LINE106_16 Bus1=106_16 Bus2=106_17 phases=3 Linecode=3c_300_SAC_XC Length=0.111 Units=m
New Line.LINE106_17 Bus1=106_17 Bus2=106_18 phases=3 Linecode=3c_300_SAC_XC Length=0.10119 Units=m
New Line.LINE106_18 Bus1=106_18 Bus2=106_19 phases=3 Linecode=3c_300_SAC_XC Length=1.2806 Units=m
New Line.LINE106_19 Bus1=106_19 Bus2=106_20 phases=3 Linecode=3c_300_SAC_XC Length=2.4335 Units=m
New Line.LINE106_20 Bus1=106_20 Bus2=106_21 phases=3 Linecode=3c_300_SAC_XC Length=3.4365 Units=m
New Line.LINE106_21 Bus1=106_21 Bus2=106_22 phases=3 Linecode=3c_300_SAC_XC Length=4.7353 Units=m
New Line.LINE106_22 Bus1=106_22 Bus2=106_23 phases=3 Linecode=3c_300_SAC_XC Length=7.1185 Units=m
New Line.LINE106_23 Bus1=106_23 Bus2=106_24 phases=3 Linecode=3c_300_SAC_XC Length=2.9947 Units=m
New Line.LINE106_24 Bus1=106_24 Bus2=106_25 phases=3 Linecode=3c_300_SAC_XC Length=1.6773 Units=m
New Line.LINE106_25 Bus1=106_25 Bus2=106_26 phases=3 Linecode=3c_300_SAC_XC Length=2.2348 Units=m
New Line.LINE106_26 Bus1=106_26 Bus2=106_27 phases=3 Linecode=3c_300_SAC_XC Length=0.21124 Units=m
New Line.LINE106_27 Bus1=106_27 Bus2=106_28 phases=3 Linecode=4c_300_SAC Length=0.74568 Units=m
New Line.LINE106_28 Bus1=106_28 Bus2=106_29 phases=3 Linecode=4c_300_SAC Length=3.1001 Units=m
New Line.LINE106_29 Bus1=106_29 Bus2=106_30 phases=3 Linecode=4c_300_SAC Length=0.45892 Units=m
New Line.LINE106_30 Bus1=106_30 Bus2=106_31 phases=3 Linecode=4c_300_SAC Length=0.62635 Units=m
New Line.LINE106_31 Bus1=106_31 Bus2=106_32 phases=3 Linecode=4c_300_SAC Length=0.51065 Units=m
New Line.LINE106_32 Bus1=106_32 Bus2=106_33 phases=3 Linecode=4c_300_SAC Length=0.51673 Units=m
New Line.LINE106_33 Bus1=106_33 Bus2=106_34 phases=3 Linecode=4c_.5 Length=0.19544 Units=m
New Line.LINE106_34 Bus1=106_34 Bus2=106_35 phases=3 Linecode=4c_.5 Length=0.15274 Units=m
New Line.LINE106_35 Bus1=106_35 Bus2=106_36 phases=3 Linecode=4c_.5 Length=6.1429 Units=m
New Line.LINE106_36 Bus1=106_36 Bus2=106_37 phases=3 Linecode=4c_.5 Length=0.049041 Units=m
New Line.LINE106_37 Bus1=106_37 Bus2=106_38 phases=3 Linecode=4c_.5 Length=0.043012 Units=m
New Line.LINE106_38 Bus1=106_38 Bus2=106_39 phases=3 Linecode=4c_.5 Length=0.035609 Units=m
New Line.LINE106_39 Bus1=106_39 Bus2=106_40 phases=3 Linecode=4c_.5 Length=0.039395 Units=m
New Line.LINE106_40 Bus1=106_40 Bus2=106_41 phases=3 Linecode=4c_.5 Length=0.03214 Units=m
New Line.LINE106_41 Bus1=106_41 Bus2=106_42 phases=3 Linecode=4c_.5 Length=0.036057 Units=m
New Line.LINE106_42 Bus1=106_42 Bus2=106_43 phases=3 Linecode=4c_.5 Length=0.053366 Units=m
New Line.LINE106_43 Bus1=106_43 Bus2=106_44 phases=3 Linecode=4c_.5 Length=3.3579 Units=m
New Line.LINE106_44 Bus1=106_44 Bus2=106_45 phases=3 Linecode=4c_.5 Length=2.0951 Units=m
New Line.LINE106_45 Bus1=106_45 Bus2=106_46 phases=3 Linecode=4c_.5 Length=9.7005 Units=m
New Line.LINE106_46 Bus1=106_46 Bus2=106_47 phases=3 Linecode=4c_.5 Length=6.959 Units=m
New Line.LINE106_47 Bus1=106_47 Bus2=106_48 phases=3 Linecode=4c_.5 Length=8.8034 Units=m
New Line.LINE106_48 Bus1=106_48 Bus2=106_49 phases=3 Linecode=4c_.5 Length=6.9545 Units=m
New Line.LINE106_49 Bus1=106_49 Bus2=106_50 phases=3 Linecode=4c_.5 Length=0.24223 Units=m
New Line.LINE106_50 Bus1=106_50 Bus2=106_51 phases=3 Linecode=4c_.5 Length=6.0988 Units=m
New Line.LINE106_51 Bus1=106_51 Bus2=106_52 phases=3 Linecode=4c_.5 Length=1.4314 Units=m
New Line.LINE106_52 Bus1=106_52 Bus2=106_53 phases=3 Linecode=4c_.5 Length=0.08507 Units=m
New Line.LINE106_53 Bus1=106_53 Bus2=106_54 phases=3 Linecode=4c_.5 Length=0.072561 Units=m
New Line.LINE106_54 Bus1=106_54 Bus2=106_55 phases=3 Linecode=4c_.5 Length=0.063033 Units=m
New Line.LINE106_55 Bus1=106_55 Bus2=106_56 phases=3 Linecode=4c_.5 Length=0.060728 Units=m
New Line.LINE106_56 Bus1=106_56 Bus2=106_57 phases=3 Linecode=4c_.5 Length=0.061717 Units=m
New Line.LINE106_57 Bus1=106_57 Bus2=106_58 phases=3 Linecode=4c_.5 Length=0.063127 Units=m
New Line.LINE106_58 Bus1=106_58 Bus2=106_59 phases=3 Linecode=4c_.5 Length=0.067623 Units=m
New Line.LINE106_59 Bus1=106_59 Bus2=106_60 phases=3 Linecode=4c_.5 Length=0.079756 Units=m
New Line.LINE106_60 Bus1=106_60 Bus2=106_61 phases=3 Linecode=4c_.5 Length=0.28445 Units=m
New Line.LINE106_61 Bus1=106_61 Bus2=106_62 phases=3 Linecode=4c_.5 Length=0.24242 Units=m
New Line.LINE106_62 Bus1=106_62 Bus2=106_63 phases=3 Linecode=4c_.5 Length=3.6132 Units=m
New Line.LINE106_63 Bus1=106_63 Bus2=106_64 phases=3 Linecode=25_SAC_XC Length=7.0492 Units=m
New Line.LINE106_64 Bus1=106_63 Bus2=106_65 phases=3 Linecode=4c_.5 Length=12.8573 Units=m
New Line.LINE106_65 Bus1=106_65 Bus2=106_66 phases=3 Linecode=4c_.5 Length=0.80499 Units=m
New Line.LINE106_66 Bus1=106_66 Bus2=106_67 phases=3 Linecode=4c_.5 Length=5.3219 Units=m
New Line.LINE106_68 Bus1=106_67 Bus2=106_69 phases=3 Linecode=4c_.5 Length=10.9188 Units=m
New Line.LINE106_70 Bus1=106_69 Bus2=106_71 phases=3 Linecode=4c_.5 Length=7.8706 Units=m
New Line.LINE106_72 Bus1=106_71 Bus2=106_73 phases=3 Linecode=4c_.5 Length=4.31 Units=m
New Line.LINE106_74 Bus1=106_73 Bus2=106_75 phases=3 Linecode=4c_.5 Length=2.0834 Units=m
New Line.LINE106_76 Bus1=106_75 Bus2=106_77 phases=3 Linecode=4c_.5 Length=1.6988 Units=m
New Line.LINE106_78 Bus1=106_77 Bus2=106_79 phases=3 Linecode=4c_.5 Length=0.036673 Units=m
New Line.LINE106_81 Bus1=106_79 Bus2=106_82 phases=3 Linecode=4c_.5 Length=1.8783 Units=m
New Line.LINE106_84 Bus1=106_82 Bus2=106_85 phases=3 Linecode=4c_.5 Length=0.24734 Units=m
New Line.LINE106_87 Bus1=106_85 Bus2=106_88 phases=3 Linecode=4c_.5 Length=0.20616 Units=m
New Line.LINE106_90 Bus1=106_88 Bus2=106_91 phases=3 Linecode=4c_.5 Length=0.3 Units=m
New Line.LINE106_93 Bus1=106_91 Bus2=106_94 phases=3 Linecode=4c_.5 Length=0.8 Units=m
New Line.LINE106_96 Bus1=106_94 Bus2=106_97 phases=3 Linecode=4c_.5 Length=0.43588 Units=m
New Line.LINE106_98 Bus1=106_97 Bus2=106_99 phases=3 Linecode=4c_.5 Length=0.61635 Units=m
New Line.LINE106_99 Bus1=106_99 Bus2=106_100 phases=3 Linecode=4c_.5 Length=0.4717 Units=m
New Line.LINE106_100 Bus1=106_100 Bus2=106_101 phases=3 Linecode=4c_.5 Length=0.70752 Units=m
New Line.LINE106_101 Bus1=106_101 Bus2=106_102 phases=3 Linecode=4c_.5 Length=0.52321 Units=m
New Line.LINE106_102 Bus1=106_102 Bus2=106_103 phases=3 Linecode=4c_.5 Length=0.6612 Units=m
New Line.LINE106_103 Bus1=106_103 Bus2=106_104 phases=3 Linecode=4c_.5 Length=0.24707 Units=m
New Line.LINE106_104 Bus1=106_104 Bus2=106_105 phases=3 Linecode=4c_.5 Length=0.22448 Units=m
New Line.LINE106_105 Bus1=106_105 Bus2=106_106 phases=3 Linecode=4c_.5 Length=0.26073 Units=m
New Line.LINE106_106 Bus1=106_106 Bus2=106_107 phases=3 Linecode=4c_.5 Length=1.5874 Units=m
New Line.LINE106_107 Bus1=106_107 Bus2=106_108 phases=3 Linecode=4c_.5 Length=8.7301 Units=m
New Line.LINE106_108 Bus1=106_108 Bus2=106_109 phases=3 Linecode=4c_.5 Length=7.9186 Units=m
New Line.LINE106_109 Bus1=106_109 Bus2=106_110 phases=3 Linecode=4c_.5 Length=6.9864 Units=m
New Line.LINE106_111 Bus1=106_110 Bus2=106_112 phases=3 Linecode=4c_.5 Length=7.5444 Units=m
New Line.LINE106_113 Bus1=106_112 Bus2=106_114 phases=3 Linecode=4c_.5 Length=1.8976 Units=m
New Line.LINE106_116 Bus1=106_114 Bus2=106_117 phases=3 Linecode=4c_.5 Length=0.47674 Units=m
New Line.LINE106_120 Bus1=106_117 Bus2=106_121 phases=3 Linecode=4c_.5 Length=1.0783 Units=m
New Line.LINE106_123 Bus1=106_121 Bus2=106_124 phases=3 Linecode=4c_.5 Length=3.4917 Units=m
New Line.LINE106_127 Bus1=106_124 Bus2=106_128 phases=3 Linecode=4c_.5 Length=3.4917 Units=m
New Line.LINE106_131 Bus1=106_128 Bus2=106_132 phases=3 Linecode=4c_.5 Length=0.47424 Units=m
New Line.LINE106_135 Bus1=106_132 Bus2=106_136 phases=3 Linecode=4c_.5 Length=1.4118 Units=m
New Line.LINE106_140 Bus1=106_136 Bus2=106_141 phases=3 Linecode=4c_.5 Length=0.54017 Units=m
New Line.LINE106_145 Bus1=106_141 Bus2=106_146 phases=3 Linecode=4c_.5 Length=0.12371 Units=m
New Line.LINE106_149 Bus1=106_146 Bus2=106_150 phases=3 Linecode=4c_.5 Length=0.10124 Units=m
New Line.LINE106_152 Bus1=106_150 Bus2=106_153 phases=3 Linecode=4c_.5 Length=0.30484 Units=m
New Line.LINE106_156 Bus1=106_153 Bus2=106_157 phases=3 Linecode=4c_.5 Length=0.49349 Units=m
New Line.LINE106_161 Bus1=106_157 Bus2=106_162 phases=3 Linecode=4c_.5 Length=0.091592 Units=m
New Line.LINE106_166 Bus1=106_162 Bus2=106_167 phases=3 Linecode=4c_.5 Length=0.19424 Units=m
New Line.LINE106_170 Bus1=106_167 Bus2=106_171 phases=3 Linecode=4c_.5 Length=0.099464 Units=m
New Line.LINE106_174 Bus1=106_171 Bus2=106_175 phases=3 Linecode=4c_.5 Length=0.12702 Units=m
New Line.LINE106_178 Bus1=106_175 Bus2=106_179 phases=3 Linecode=4c_.5 Length=0.14356 Units=m
New Line.LINE106_182 Bus1=106_179 Bus2=106_183 phases=3 Linecode=4c_.5 Length=0.099044 Units=m
New Line.LINE106_186 Bus1=106_183 Bus2=106_187 phases=3 Linecode=4c_.5 Length=0.32555 Units=m
New Line.LINE106_190 Bus1=106_187 Bus2=106_191 phases=3 Linecode=4c_.25 Length=0.62831 Units=m
New Line.LINE106_193 Bus1=106_191 Bus2=106_194 phases=3 Linecode=4c_.25 Length=1.9717 Units=m
New Line.LINE106_196 Bus1=106_194 Bus2=106_197 phases=3 Linecode=4c_.5 Length=1.0027 Units=m
New Line.LINE106_199 Bus1=106_197 Bus2=106_200 phases=3 Linecode=4c_.5 Length=0.43545 Units=m
New Line.LINE106_202 Bus1=106_200 Bus2=106_203 phases=3 Linecode=4c_.5 Length=0.26308 Units=m
New Line.LINE106_205 Bus1=106_203 Bus2=106_206 phases=3 Linecode=4c_.5 Length=0.21349 Units=m
New Line.LINE106_207 Bus1=106_206 Bus2=106_208 phases=3 Linecode=4c_.5 Length=0.34563 Units=m
New Line.LINE106_209 Bus1=106_208 Bus2=106_210 phases=3 Linecode=4c_.5 Length=0.31667 Units=m
New Line.LINE106_211 Bus1=106_210 Bus2=106_212 phases=3 Linecode=4c_.5 Length=0.56696 Units=m
New Line.LINE106_212 Bus1=106_212 Bus2=106_213 phases=3 Linecode=4c_.5 Length=0.50264 Units=m
New Line.LINE106_213 Bus1=106_213 Bus2=106_214 phases=3 Linecode=4c_.5 Length=0.60606 Units=m
New Line.LINE106_214 Bus1=106_214 Bus2=106_215 phases=3 Linecode=4c_.5 Length=1.7222 Units=m
New Line.LINE106_215 Bus1=106_215 Bus2=106_216 phases=3 Linecode=4c_.5 Length=1.1374 Units=m
New Line.LINE106_216 Bus1=106_216 Bus2=106_217 phases=3 Linecode=4c_.25 Length=0.77169 Units=m
New Line.LINE106_217 Bus1=106_217 Bus2=106_218 phases=3 Linecode=4c_.25 Length=11.4546 Units=m
New Line.LINE106_218 Bus1=106_218 Bus2=106_219 phases=3 Linecode=4c_.25 Length=0.66339 Units=m
New Line.LINE106_219 Bus1=106_219 Bus2=106_220 phases=3 Linecode=4c_.25 Length=1.3798 Units=m
New Line.LINE106_220 Bus1=106_220 Bus2=106_221 phases=3 Linecode=4c_.25 Length=0.76722 Units=m
New Line.LINE106_222 Bus1=106_221 Bus2=106_223 phases=3 Linecode=4c_.25 Length=0.5146 Units=m
New Line.LINE106_224 Bus1=106_223 Bus2=106_225 phases=3 Linecode=4c_.25 Length=5.4601 Units=m
New Line.LINE106_226 Bus1=106_225 Bus2=106_227 phases=3 Linecode=4c_.25 Length=0.85208 Units=m
New Line.LINE106_296 Bus1=106_295 Bus2=106_297 phases=3 Linecode=3c_300_ASN Length=0.57442 Units=m
New Line.LINE106_299 Bus1=106_297 Bus2=106_300 phases=3 Linecode=3c_300_ASN Length=0.080056 Units=m
New Line.LINE106_302 Bus1=106_300 Bus2=106_303 phases=3 Linecode=3c_300_ASN Length=0.079511 Units=m
New Line.LINE106_305 Bus1=106_301 Bus2=106_306 phases=3 Linecode=4c_.25 Length=3.682 Units=m
New Line.LINE106_307 Bus1=106_303 Bus2=106_308 phases=3 Linecode=3c_300_ASN Length=0.20209 Units=m
New Line.LINE106_310 Bus1=106_306 Bus2=106_311 phases=3 Linecode=4c_.25 Length=3.5315 Units=m
New Line.LINE106_312 Bus1=106_308 Bus2=106_313 phases=3 Linecode=3c_300_ASN Length=0.10555 Units=m
New Line.LINE106_316 Bus1=106_311 Bus2=106_317 phases=3 Linecode=4c_.25 Length=0.15754 Units=m
New Line.LINE106_318 Bus1=106_313 Bus2=106_319 phases=3 Linecode=3c_300_ASN Length=0.081597 Units=m
New Line.LINE106_322 Bus1=106_317 Bus2=106_323 phases=3 Linecode=4c_.25 Length=1.0573 Units=m
New Line.LINE106_324 Bus1=106_319 Bus2=106_325 phases=3 Linecode=3c_300_ASN Length=0.18337 Units=m
New Line.LINE106_328 Bus1=106_323 Bus2=106_329 phases=3 Linecode=4c_.25 Length=2.1212 Units=m
New Line.LINE106_330 Bus1=106_325 Bus2=106_331 phases=3 Linecode=3c_300_ASN Length=0.50248 Units=m
New Line.LINE106_335 Bus1=106_329 Bus2=106_336 phases=3 Linecode=4c_.25 Length=2.2386 Units=m
New Line.LINE106_337 Bus1=106_331 Bus2=106_338 phases=3 Linecode=3c_300_ASN Length=1.3216 Units=m
New Line.LINE106_343 Bus1=106_336 Bus2=106_344 phases=3 Linecode=4c_.25 Length=4.804 Units=m
New Line.LINE106_345 Bus1=106_338 Bus2=106_346 phases=3 Linecode=2c_.007 Length=0.20502 Units=m
New Line.LINE106_352 Bus1=106_344 Bus2=106_353 phases=3 Linecode=4c_.25 Length=1.3613 Units=m
New Line.LINE106_355 Bus1=106_346 Bus2=106_356 phases=3 Linecode=2c_.007 Length=0.15127 Units=m
New Line.LINE106_362 Bus1=106_353 Bus2=106_363 phases=3 Linecode=4c_.25 Length=4.0984 Units=m
New Line.LINE106_364 Bus1=106_356 Bus2=106_365 phases=3 Linecode=2c_.007 Length=0.1789 Units=m
New Line.LINE106_371 Bus1=106_363 Bus2=106_372 phases=3 Linecode=4c_.25 Length=0.16105 Units=m
New Line.LINE106_373 Bus1=106_365 Bus2=106_374 phases=3 Linecode=2c_.007 Length=0.31847 Units=m
New Line.LINE106_379 Bus1=106_372 Bus2=106_380 phases=3 Linecode=4c_.25 Length=10.3759 Units=m
New Line.LINE106_381 Bus1=106_374 Bus2=106_382 phases=3 Linecode=2c_.007 Length=0.28258 Units=m
New Line.LINE106_386 Bus1=106_380 Bus2=106_387 phases=3 Linecode=4c_.25 Length=0.45554 Units=m
New Line.LINE106_388 Bus1=106_382 Bus2=106_389 phases=3 Linecode=2c_.007 Length=0.098184 Units=m
New Line.LINE106_393 Bus1=106_387 Bus2=106_394 phases=3 Linecode=4c_300 Length=0.41499 Units=m
New Line.LINE106_394 Bus1=106_389 Bus2=106_395 phases=3 Linecode=2c_.007 Length=0.096187 Units=m
New Line.LINE106_399 Bus1=106_394 Bus2=106_400 phases=3 Linecode=4c_300 Length=0.23559 Units=m
New Line.LINE106_400 Bus1=106_395 Bus2=106_401 phases=3 Linecode=2c_.007 Length=0.16575 Units=m
New Line.LINE106_403 Bus1=106_400 Bus2=106_404 phases=3 Linecode=4c_300 Length=0.34082 Units=m
New Line.LINE106_404 Bus1=106_401 Bus2=106_405 phases=3 Linecode=2c_.007 Length=0.1642 Units=m
New Line.LINE106_407 Bus1=106_404 Bus2=106_408 phases=3 Linecode=4c_300 Length=0.21326 Units=m
New Line.LINE106_408 Bus1=106_405 Bus2=106_409 phases=3 Linecode=2c_.007 Length=1.3764 Units=m
New Line.LINE106_411 Bus1=106_408 Bus2=106_412 phases=3 Linecode=4c_300 Length=0.35823 Units=m
New Line.LINE106_412 Bus1=106_409 Bus2=106_413 phases=3 Linecode=2c_.007 Length=0.2552 Units=m
New Line.LINE106_415 Bus1=106_412 Bus2=106_416 phases=3 Linecode=4c_300 Length=0.35869 Units=m
New Line.LINE106_416 Bus1=106_413 Bus2=106_417 phases=3 Linecode=2c_.007 Length=0.070935 Units=m
New Line.LINE106_420 Bus1=106_416 Bus2=106_421 phases=3 Linecode=4c_300 Length=0.35436 Units=m
New Line.LINE106_421 Bus1=106_417 Bus2=106_422 phases=3 Linecode=2c_.007 Length=0.11261 Units=m
New Line.LINE106_424 Bus1=106_421 Bus2=106_425 phases=3 Linecode=4c_300 Length=0.32267 Units=m
New Line.LINE106_425 Bus1=106_422 Bus2=106_426 phases=3 Linecode=2c_.007 Length=0.32758 Units=m
New Line.LINE106_428 Bus1=106_425 Bus2=106_429 phases=3 Linecode=4c_300 Length=0.6364 Units=m
New Line.LINE106_429 Bus1=106_426 Bus2=106_430 phases=3 Linecode=2c_.007 Length=0.18639 Units=m
New Line.LINE106_432 Bus1=106_429 Bus2=106_433 phases=3 Linecode=4_PSC Length=0.26531 Units=m
New Line.LINE106_434 Bus1=106_430 Bus2=106_435 phases=3 Linecode=2c_.007 Length=0.079906 Units=m
New Line.LINE106_436 Bus1=106_433 Bus2=106_437 phases=3 Linecode=4_PSC Length=0.10017 Units=m
New Line.LINE106_438 Bus1=106_435 Bus2=106_439 phases=3 Linecode=2c_.007 Length=3.6442 Units=m
New Line.LINE106_440 Bus1=106_437 Bus2=106_441 phases=3 Linecode=4_PSC Length=0.10531 Units=m
New Line.LINE106_441 Bus1=106_439 Bus2=106_442 phases=3 Linecode=2c_.007 Length=7.3755 Units=m
New Line.LINE106_443 Bus1=106_441 Bus2=106_444 phases=3 Linecode=4_PSC Length=0.099323 Units=m
New Line.LINE106_445 Bus1=106_444 Bus2=106_446 phases=3 Linecode=4_PSC Length=0.091925 Units=m
New Line.LINE106_447 Bus1=106_446 Bus2=106_448 phases=3 Linecode=4_PSC Length=0.10247 Units=m
New Line.LINE106_449 Bus1=106_448 Bus2=106_450 phases=3 Linecode=4_PSC Length=0.16377 Units=m
New Line.LINE106_451 Bus1=106_450 Bus2=106_452 phases=3 Linecode=4_PSC Length=0.094557 Units=m
New Line.LINE106_453 Bus1=106_452 Bus2=106_454 phases=3 Linecode=4_PSC Length=0.086331 Units=m
New Line.LINE106_455 Bus1=106_454 Bus2=106_456 phases=3 Linecode=4_PSC Length=0.103 Units=m
New Line.LINE106_457 Bus1=106_456 Bus2=106_458 phases=3 Linecode=4_PSC Length=2.2849 Units=m
New Line.LINE106_458 Bus1=106_458 Bus2=106_459 phases=3 Linecode=4_PSC Length=3.1607 Units=m
New Line.LINE106_Cmpd_0 Bus1=106_227 Bus2=106_295 phases=3 Linecode=4c_.25 Length=14.168687 Units=m
New Line.LINE106_Cmpd_1 Bus1=106_227 Bus2=106_286 phases=3 Linecode=3c_.06 Length=17.780656 Units=m
New Line.LINE106_Cmpd_2 Bus1=106_301 Bus2=106_367 phases=3 Linecode=25_SAC_XC Length=10.65744 Units=m
New Line.LINE106_Cmpd_3 Bus1=106_295 Bus2=106_301 phases=3 Linecode=4c_.25 Length=4.5553 Units=m
