New Line.LINE106_1 Bus1=106_1 Bus2=106_2 phases=3 Linecode=3c_300_SAC_XC Length=0.82412 Units=m
New Line.LINE106_2 Bus1=106_2 Bus2=106_3 phases=3 Linecode=3c_300_SAC_XC Length=0.09188 Units=m
New Line.LINE106_3 Bus1=106_3 Bus2=106_4 phases=3 Linecode=3c_300_SAC_XC Length=0.12053 Units=m
New Line.LINE106_4 Bus1=106_4 Bus2=106_5 phases=3 Linecode=3c_300_SAC_XC Length=1.8529 Units=m
New Line.LINE106_5 Bus1=106_5 Bus2=106_6 phases=3 Linecode=3c_300_SAC_XC Length=0.054708 Units=m
New Line.LINE106_6 Bus1=106_6 Bus2=106_7 phases=3 Linecode=3c_300_SAC_XC Length=0.037643 Units=m
New Line.LINE106_7 Bus1=106_7 Bus2=106_8 phases=3 Linecode=3c_300_SAC_XC Length=0.037337 Units=m
New Line.LINE106_8 Bus1=106_8 Bus2=106_9 phases=3 Linecode=3c_300_SAC_XC Length=0.038052 Units=m
New Line.LINE106_9 Bus1=106_9 Bus2=106_10 phases=3 Linecode=3c_300_SAC_XC Length=0.038079 Units=m
New Line.LINE106_10 Bus1=106_10 Bus2=106_11 phases=3 Linecode=3c_300_SAC_XC Length=0.037577 Units=m
New Line.LINE106_11 Bus1=106_11 Bus2=106_12 phases=3 Linecode=3c_300_SAC_XC Length=0.038013 Units=m
New Line.LINE106_12 Bus1=106_12 Bus2=106_13 phases=3 Linecode=3c_300_SAC_XC Length=0.03677 Units=m
New Line.LINE106_13 Bus1=106_13 Bus2=106_14 phases=3 Linecode=3c_300_SAC_XC Length=0.038275 Units=m
New Line.LINE106_14 Bus1=106_14 Bus2=106_15 phases=3 Linecode=3c_300_SAC_XC Length=0.037578 Units=m
New Line.LINE106_15 Bus1=106_15 Bus2=106_16 phases=3 Linecode=3c_300_SAC_XC Length=2.3102 Units=m
New Line.LINE106_16 Bus1=106_16 Bus2=106_17 phases=3 Linecode=3c_300_SAC_XC Length=0.111 Units=m
New Line.LINE106_17 Bus1=106_17 Bus2=106_18 phases=3 Linecode=3c_300_SAC_XC Length=0.10119 Units=m
New Line.LINE106_18 Bus1=106_18 Bus2=106_19 phases=3 Linecode=3c_300_SAC_XC Length=1.2806 Units=m
New Line.LINE106_19 Bus1=106_19 Bus2=106_20 phases=3 Linecode=3c_300_SAC_XC Length=2.4335 Units=m
New Line.LINE106_20 Bus1=106_20 Bus2=106_21 phases=3 Linecode=3c_300_SAC_XC Length=3.4365 Units=m
New Line.LINE106_21 Bus1=106_21 Bus2=106_22 phases=3 Linecode=3c_300_SAC_XC Length=4.7353 Units=m
New Line.LINE106_22 Bus1=106_22 Bus2=106_23 phases=3 Linecode=3c_300_SAC_XC Length=7.1185 Units=m
New Line.LINE106_23 Bus1=106_23 Bus2=106_24 phases=3 Linecode=3c_300_SAC_XC Length=2.9947 Units=m
New Line.LINE106_24 Bus1=106_24 Bus2=106_25 phases=3 Linecode=3c_300_SAC_XC Length=1.6773 Units=m
New Line.LINE106_25 Bus1=106_25 Bus2=106_26 phases=3 Linecode=3c_300_SAC_XC Length=2.2348 Units=m
New Line.LINE106_26 Bus1=106_26 Bus2=106_27 phases=3 Linecode=3c_300_SAC_XC Length=0.21124 Units=m
New Line.LINE106_27 Bus1=106_27 Bus2=106_28 phases=3 Linecode=4c_300_SAC Length=0.74568 Units=m
New Line.LINE106_28 Bus1=106_28 Bus2=106_29 phases=3 Linecode=4c_300_SAC Length=3.1001 Units=m
New Line.LINE106_29 Bus1=106_29 Bus2=106_30 phases=3 Linecode=4c_300_SAC Length=0.45892 Units=m
New Line.LINE106_30 Bus1=106_30 Bus2=106_31 phases=3 Linecode=4c_300_SAC Length=0.62635 Units=m
New Line.LINE106_31 Bus1=106_31 Bus2=106_32 phases=3 Linecode=4c_300_SAC Length=0.51065 Units=m
New Line.LINE106_32 Bus1=106_32 Bus2=106_33 phases=3 Linecode=4c_300_SAC Length=0.51673 Units=m
New Line.LINE106_33 Bus1=106_33 Bus2=106_34 phases=3 Linecode=4c_.5 Length=0.19544 Units=m
New Line.LINE106_34 Bus1=106_34 Bus2=106_35 phases=3 Linecode=4c_.5 Length=0.15274 Units=m
New Line.LINE106_35 Bus1=106_35 Bus2=106_36 phases=3 Linecode=4c_.5 Length=6.1429 Units=m
New Line.LINE106_36 Bus1=106_36 Bus2=106_37 phases=3 Linecode=4c_.5 Length=0.049041 Units=m
New Line.LINE106_37 Bus1=106_37 Bus2=106_38 phases=3 Linecode=4c_.5 Length=0.043012 Units=m
New Line.LINE106_38 Bus1=106_38 Bus2=106_39 phases=3 Linecode=4c_.5 Length=0.035609 Units=m
New Line.LINE106_39 Bus1=106_39 Bus2=106_40 phases=3 Linecode=4c_.5 Length=0.039395 Units=m
New Line.LINE106_40 Bus1=106_40 Bus2=106_41 phases=3 Linecode=4c_.5 Length=0.03214 Units=m
New Line.LINE106_41 Bus1=106_41 Bus2=106_42 phases=3 Linecode=4c_.5 Length=0.036057 Units=m
New Line.LINE106_42 Bus1=106_42 Bus2=106_43 phases=3 Linecode=4c_.5 Length=0.053366 Units=m
New Line.LINE106_43 Bus1=106_43 Bus2=106_44 phases=3 Linecode=4c_.5 Length=3.3579 Units=m
New Line.LINE106_44 Bus1=106_44 Bus2=106_45 phases=3 Linecode=4c_.5 Length=2.0951 Units=m
New Line.LINE106_45 Bus1=106_45 Bus2=106_46 phases=3 Linecode=4c_.5 Length=9.7005 Units=m
New Line.LINE106_46 Bus1=106_46 Bus2=106_47 phases=3 Linecode=4c_.5 Length=6.959 Units=m
New Line.LINE106_47 Bus1=106_47 Bus2=106_48 phases=3 Linecode=4c_.5 Length=8.8034 Units=m
New Line.LINE106_48 Bus1=106_48 Bus2=106_49 phases=3 Linecode=4c_.5 Length=6.9545 Units=m
New Line.LINE106_49 Bus1=106_49 Bus2=106_50 phases=3 Linecode=4c_.5 Length=0.24223 Units=m
New Line.LINE106_50 Bus1=106_50 Bus2=106_51 phases=3 Linecode=4c_.5 Length=6.0988 Units=m
New Line.LINE106_51 Bus1=106_51 Bus2=106_52 phases=3 Linecode=4c_.5 Length=1.4314 Units=m
New Line.LINE106_52 Bus1=106_52 Bus2=106_53 phases=3 Linecode=4c_.5 Length=0.08507 Units=m
New Line.LINE106_53 Bus1=106_53 Bus2=106_54 phases=3 Linecode=4c_.5 Length=0.072561 Units=m
New Line.LINE106_54 Bus1=106_54 Bus2=106_55 phases=3 Linecode=4c_.5 Length=0.063033 Units=m
New Line.LINE106_55 Bus1=106_55 Bus2=106_56 phases=3 Linecode=4c_.5 Length=0.060728 Units=m
New Line.LINE106_56 Bus1=106_56 Bus2=106_57 phases=3 Linecode=4c_.5 Length=0.061717 Units=m
New Line.LINE106_57 Bus1=106_57 Bus2=106_58 phases=3 Linecode=4c_.5 Length=0.063127 Units=m
New Line.LINE106_58 Bus1=106_58 Bus2=106_59 phases=3 Linecode=4c_.5 Length=0.067623 Units=m
New Line.LINE106_59 Bus1=106_59 Bus2=106_60 phases=3 Linecode=4c_.5 Length=0.079756 Units=m
New Line.LINE106_60 Bus1=106_60 Bus2=106_61 phases=3 Linecode=4c_.5 Length=0.28445 Units=m
New Line.LINE106_61 Bus1=106_61 Bus2=106_62 phases=3 Linecode=4c_.5 Length=0.24242 Units=m
New Line.LINE106_62 Bus1=106_62 Bus2=106_63 phases=3 Linecode=4c_.5 Length=3.6132 Units=m
New Line.LINE106_63 Bus1=106_63 Bus2=106_64 phases=3 Linecode=25_SAC_XC Length=7.0492 Units=m
New Line.LINE106_64 Bus1=106_63 Bus2=106_65 phases=3 Linecode=4c_.5 Length=12.8573 Units=m
New Line.LINE106_65 Bus1=106_65 Bus2=106_66 phases=3 Linecode=4c_.5 Length=0.80499 Units=m
New Line.LINE106_66 Bus1=106_66 Bus2=106_67 phases=3 Linecode=4c_.5 Length=5.3219 Units=m
New Line.LINE106_67 Bus1=106_66 Bus2=106_68 phases=3 Linecode=4c_.5 Length=0.68559 Units=m
New Line.LINE106_68 Bus1=106_67 Bus2=106_69 phases=3 Linecode=4c_.5 Length=10.9188 Units=m
New Line.LINE106_69 Bus1=106_68 Bus2=106_70 phases=3 Linecode=4c_.5 Length=5.1604 Units=m
New Line.LINE106_70 Bus1=106_69 Bus2=106_71 phases=3 Linecode=4c_.5 Length=7.8706 Units=m
New Line.LINE106_71 Bus1=106_70 Bus2=106_72 phases=3 Linecode=4c_.5 Length=0.48819 Units=m
New Line.LINE106_72 Bus1=106_71 Bus2=106_73 phases=3 Linecode=4c_.5 Length=4.31 Units=m
New Line.LINE106_73 Bus1=106_72 Bus2=106_74 phases=3 Linecode=4c_.5 Length=0.38107 Units=m
New Line.LINE106_74 Bus1=106_73 Bus2=106_75 phases=3 Linecode=4c_.5 Length=2.0834 Units=m
New Line.LINE106_75 Bus1=106_74 Bus2=106_76 phases=3 Linecode=4c_.5 Length=0.29934 Units=m
New Line.LINE106_76 Bus1=106_75 Bus2=106_77 phases=3 Linecode=4c_.5 Length=1.6988 Units=m
New Line.LINE106_77 Bus1=106_76 Bus2=106_78 phases=3 Linecode=4c_.5 Length=0.2983 Units=m
New Line.LINE106_78 Bus1=106_77 Bus2=106_79 phases=3 Linecode=4c_.5 Length=0.036673 Units=m
New Line.LINE106_79 Bus1=106_78 Bus2=106_80 phases=3 Linecode=4c_.5 Length=0.18587 Units=m
New Line.LINE106_80 Bus1=106_79 Bus2=106_81 phases=3 Linecode=2c_.007 Length=0.25754 Units=m
New Line.LINE106_81 Bus1=106_79 Bus2=106_82 phases=3 Linecode=4c_.5 Length=1.8783 Units=m
New Line.LINE106_82 Bus1=106_80 Bus2=106_83 phases=3 Linecode=4c_.5 Length=0.25115 Units=m
New Line.LINE106_83 Bus1=106_81 Bus2=106_84 phases=3 Linecode=2c_.007 Length=0.16191 Units=m
New Line.LINE106_84 Bus1=106_82 Bus2=106_85 phases=3 Linecode=4c_.5 Length=0.24734 Units=m
New Line.LINE106_85 Bus1=106_83 Bus2=106_86 phases=3 Linecode=4c_.5 Length=1.1503 Units=m
New Line.LINE106_86 Bus1=106_84 Bus2=106_87 phases=3 Linecode=2c_.007 Length=0.13437 Units=m
New Line.LINE106_87 Bus1=106_85 Bus2=106_88 phases=3 Linecode=4c_.5 Length=0.20616 Units=m
New Line.LINE106_88 Bus1=106_85 Bus2=106_89 phases=3 Linecode=4c_.12 Length=0.15473 Units=m
New Line.LINE106_89 Bus1=106_87 Bus2=106_90 phases=3 Linecode=2c_.007 Length=0.13054 Units=m
New Line.LINE106_90 Bus1=106_88 Bus2=106_91 phases=3 Linecode=4c_.5 Length=0.3 Units=m
New Line.LINE106_91 Bus1=106_89 Bus2=106_92 phases=3 Linecode=4c_.12 Length=0.17945 Units=m
New Line.LINE106_92 Bus1=106_90 Bus2=106_93 phases=3 Linecode=2c_.007 Length=0.12954 Units=m
New Line.LINE106_93 Bus1=106_91 Bus2=106_94 phases=3 Linecode=4c_.5 Length=0.8 Units=m
New Line.LINE106_94 Bus1=106_92 Bus2=106_95 phases=3 Linecode=4c_.12 Length=0.34532 Units=m
New Line.LINE106_95 Bus1=106_93 Bus2=106_96 phases=3 Linecode=2c_.007 Length=0.12067 Units=m
New Line.LINE106_96 Bus1=106_94 Bus2=106_97 phases=3 Linecode=4c_.5 Length=0.43588 Units=m
New Line.LINE106_97 Bus1=106_96 Bus2=106_98 phases=3 Linecode=2c_.007 Length=0.24942 Units=m
New Line.LINE106_98 Bus1=106_97 Bus2=106_99 phases=3 Linecode=4c_.5 Length=0.61635 Units=m
New Line.LINE106_99 Bus1=106_99 Bus2=106_100 phases=3 Linecode=4c_.5 Length=0.4717 Units=m
New Line.LINE106_100 Bus1=106_100 Bus2=106_101 phases=3 Linecode=4c_.5 Length=0.70752 Units=m
New Line.LINE106_101 Bus1=106_101 Bus2=106_102 phases=3 Linecode=4c_.5 Length=0.52321 Units=m
New Line.LINE106_102 Bus1=106_102 Bus2=106_103 phases=3 Linecode=4c_.5 Length=0.6612 Units=m
New Line.LINE106_103 Bus1=106_103 Bus2=106_104 phases=3 Linecode=4c_.5 Length=0.24707 Units=m
New Line.LINE106_104 Bus1=106_104 Bus2=106_105 phases=3 Linecode=4c_.5 Length=0.22448 Units=m
New Line.LINE106_105 Bus1=106_105 Bus2=106_106 phases=3 Linecode=4c_.5 Length=0.26073 Units=m
New Line.LINE106_106 Bus1=106_106 Bus2=106_107 phases=3 Linecode=4c_.5 Length=1.5874 Units=m
New Line.LINE106_107 Bus1=106_107 Bus2=106_108 phases=3 Linecode=4c_.5 Length=8.7301 Units=m
New Line.LINE106_108 Bus1=106_108 Bus2=106_109 phases=3 Linecode=4c_.5 Length=7.9186 Units=m
New Line.LINE106_109 Bus1=106_109 Bus2=106_110 phases=3 Linecode=4c_.5 Length=6.9864 Units=m
New Line.LINE106_110 Bus1=106_109 Bus2=106_111 phases=3 Linecode=4c_.1_SAC Length=0.33754 Units=m
New Line.LINE106_111 Bus1=106_110 Bus2=106_112 phases=3 Linecode=4c_.5 Length=7.5444 Units=m
New Line.LINE106_112 Bus1=106_111 Bus2=106_113 phases=3 Linecode=4c_.1_SAC Length=0.23513 Units=m
New Line.LINE106_113 Bus1=106_112 Bus2=106_114 phases=3 Linecode=4c_.5 Length=1.8976 Units=m
New Line.LINE106_114 Bus1=106_112 Bus2=106_115 phases=3 Linecode=4c_.5 Length=0.21 Units=m
New Line.LINE106_115 Bus1=106_113 Bus2=106_116 phases=3 Linecode=4c_.1_SAC Length=0.187 Units=m
New Line.LINE106_116 Bus1=106_114 Bus2=106_117 phases=3 Linecode=4c_.5 Length=0.47674 Units=m
New Line.LINE106_117 Bus1=106_114 Bus2=106_118 phases=3 Linecode=4c_.5 Length=0.37102 Units=m
New Line.LINE106_118 Bus1=106_115 Bus2=106_119 phases=3 Linecode=4c_.5 Length=0.11055 Units=m
New Line.LINE106_119 Bus1=106_116 Bus2=106_120 phases=3 Linecode=4c_.1_SAC Length=0.43139 Units=m
New Line.LINE106_120 Bus1=106_117 Bus2=106_121 phases=3 Linecode=4c_.5 Length=1.0783 Units=m
New Line.LINE106_121 Bus1=106_118 Bus2=106_122 phases=3 Linecode=4c_.5 Length=0.13465 Units=m
New Line.LINE106_122 Bus1=106_119 Bus2=106_123 phases=3 Linecode=4c_.5 Length=0.2091 Units=m
New Line.LINE106_123 Bus1=106_121 Bus2=106_124 phases=3 Linecode=4c_.5 Length=3.4917 Units=m
New Line.LINE106_124 Bus1=106_122 Bus2=106_125 phases=3 Linecode=4c_.5 Length=0.084529 Units=m
New Line.LINE106_125 Bus1=106_123 Bus2=106_126 phases=3 Linecode=4c_.5 Length=0.18001 Units=m
New Line.LINE106_126 Bus1=106_124 Bus2=106_127 phases=3 Linecode=2c_.0225 Length=0.43516 Units=m
New Line.LINE106_127 Bus1=106_124 Bus2=106_128 phases=3 Linecode=4c_.5 Length=3.4917 Units=m
New Line.LINE106_128 Bus1=106_125 Bus2=106_129 phases=3 Linecode=4c_.5 Length=0.14068 Units=m
New Line.LINE106_129 Bus1=106_126 Bus2=106_130 phases=3 Linecode=4c_.5 Length=0.092137 Units=m
New Line.LINE106_130 Bus1=106_127 Bus2=106_131 phases=3 Linecode=2c_.0225 Length=5.6632 Units=m
New Line.LINE106_131 Bus1=106_128 Bus2=106_132 phases=3 Linecode=4c_.5 Length=0.47424 Units=m
New Line.LINE106_132 Bus1=106_129 Bus2=106_133 phases=3 Linecode=4c_.5 Length=0.073007 Units=m
New Line.LINE106_133 Bus1=106_130 Bus2=106_134 phases=3 Linecode=4c_.5 Length=0.088006 Units=m
New Line.LINE106_134 Bus1=106_131 Bus2=106_135 phases=3 Linecode=2c_.0225 Length=0.47303 Units=m
New Line.LINE106_135 Bus1=106_132 Bus2=106_136 phases=3 Linecode=4c_.5 Length=1.4118 Units=m
New Line.LINE106_136 Bus1=106_132 Bus2=106_137 phases=3 Linecode=35_SAC_PC Length=0.18028 Units=m
New Line.LINE106_137 Bus1=106_133 Bus2=106_138 phases=3 Linecode=4c_.5 Length=0.10685 Units=m
New Line.LINE106_138 Bus1=106_134 Bus2=106_139 phases=3 Linecode=4c_.5 Length=0.090442 Units=m
New Line.LINE106_139 Bus1=106_135 Bus2=106_140 phases=3 Linecode=4_PC Length=0.2502 Units=m
New Line.LINE106_140 Bus1=106_136 Bus2=106_141 phases=3 Linecode=4c_.5 Length=0.54017 Units=m
New Line.LINE106_141 Bus1=106_137 Bus2=106_142 phases=3 Linecode=35_SAC_PC Length=0.047539 Units=m
New Line.LINE106_142 Bus1=106_138 Bus2=106_143 phases=3 Linecode=4c_.5 Length=0.11823 Units=m
New Line.LINE106_143 Bus1=106_139 Bus2=106_144 phases=3 Linecode=4c_.5 Length=0.35802 Units=m
New Line.LINE106_144 Bus1=106_140 Bus2=106_145 phases=3 Linecode=4_PC Length=0.067232 Units=m
New Line.LINE106_145 Bus1=106_141 Bus2=106_146 phases=3 Linecode=4c_.5 Length=0.12371 Units=m
New Line.LINE106_146 Bus1=106_142 Bus2=106_147 phases=3 Linecode=35_SAC_PC Length=0.049093 Units=m
New Line.LINE106_147 Bus1=106_143 Bus2=106_148 phases=3 Linecode=4c_.5 Length=0.41852 Units=m
New Line.LINE106_148 Bus1=106_145 Bus2=106_149 phases=3 Linecode=4_PC Length=0.084411 Units=m
New Line.LINE106_149 Bus1=106_146 Bus2=106_150 phases=3 Linecode=4c_.5 Length=0.10124 Units=m
New Line.LINE106_150 Bus1=106_147 Bus2=106_151 phases=3 Linecode=35_SAC_PC Length=0.1186 Units=m
New Line.LINE106_151 Bus1=106_149 Bus2=106_152 phases=3 Linecode=4_PC Length=0.16583 Units=m
New Line.LINE106_152 Bus1=106_150 Bus2=106_153 phases=3 Linecode=4c_.5 Length=0.30484 Units=m
New Line.LINE106_153 Bus1=106_151 Bus2=106_154 phases=3 Linecode=35_SAC_PC Length=0.26982 Units=m
New Line.LINE106_154 Bus1=106_153 Bus2=106_155 phases=3 Linecode=4c_.5 Length=2.9078 Units=m
New Line.LINE106_155 Bus1=106_153 Bus2=106_156 phases=3 Linecode=4c_.5 Length=4.9527 Units=m
New Line.LINE106_156 Bus1=106_153 Bus2=106_157 phases=3 Linecode=4c_.5 Length=0.49349 Units=m
New Line.LINE106_157 Bus1=106_153 Bus2=106_158 phases=3 Linecode=4c_.25 Length=0.29173 Units=m
New Line.LINE106_158 Bus1=106_154 Bus2=106_159 phases=3 Linecode=35_SAC_PC Length=5.2493 Units=m
New Line.LINE106_159 Bus1=106_155 Bus2=106_160 phases=3 Linecode=4c_.5 Length=6.9848 Units=m
New Line.LINE106_160 Bus1=106_156 Bus2=106_161 phases=3 Linecode=4c_.5 Length=0.19585 Units=m
New Line.LINE106_161 Bus1=106_157 Bus2=106_162 phases=3 Linecode=4c_.5 Length=0.091592 Units=m
New Line.LINE106_162 Bus1=106_158 Bus2=106_163 phases=3 Linecode=4c_.25 Length=0.13244 Units=m
New Line.LINE106_163 Bus1=106_159 Bus2=106_164 phases=3 Linecode=35_SAC_PC Length=1.9147 Units=m
New Line.LINE106_164 Bus1=106_160 Bus2=106_165 phases=3 Linecode=4c_.5 Length=1.0769 Units=m
New Line.LINE106_165 Bus1=106_161 Bus2=106_166 phases=3 Linecode=4c_.5 Length=0.2201 Units=m
New Line.LINE106_166 Bus1=106_162 Bus2=106_167 phases=3 Linecode=4c_.5 Length=0.19424 Units=m
New Line.LINE106_167 Bus1=106_163 Bus2=106_168 phases=3 Linecode=4c_.25 Length=0.23423 Units=m
New Line.LINE106_168 Bus1=106_165 Bus2=106_169 phases=3 Linecode=4c_.5 Length=0.91276 Units=m
New Line.LINE106_169 Bus1=106_166 Bus2=106_170 phases=3 Linecode=4c_.5 Length=0.23521 Units=m
New Line.LINE106_170 Bus1=106_167 Bus2=106_171 phases=3 Linecode=4c_.5 Length=0.099464 Units=m
New Line.LINE106_171 Bus1=106_168 Bus2=106_172 phases=3 Linecode=4c_.25 Length=0.1622 Units=m
New Line.LINE106_172 Bus1=106_169 Bus2=106_173 phases=3 Linecode=4c_.5 Length=0.90167 Units=m
New Line.LINE106_173 Bus1=106_170 Bus2=106_174 phases=3 Linecode=4c_.5 Length=0.26205 Units=m
New Line.LINE106_174 Bus1=106_171 Bus2=106_175 phases=3 Linecode=4c_.5 Length=0.12702 Units=m
New Line.LINE106_175 Bus1=106_172 Bus2=106_176 phases=3 Linecode=4c_.25 Length=0.15383 Units=m
New Line.LINE106_176 Bus1=106_173 Bus2=106_177 phases=3 Linecode=4c_.5 Length=8.1121 Units=m
New Line.LINE106_177 Bus1=106_174 Bus2=106_178 phases=3 Linecode=4c_.5 Length=0.61847 Units=m
New Line.LINE106_178 Bus1=106_175 Bus2=106_179 phases=3 Linecode=4c_.5 Length=0.14356 Units=m
New Line.LINE106_179 Bus1=106_176 Bus2=106_180 phases=3 Linecode=4c_.25 Length=0.1191 Units=m
New Line.LINE106_180 Bus1=106_177 Bus2=106_181 phases=3 Linecode=4c_.5 Length=2.2879 Units=m
New Line.LINE106_181 Bus1=106_178 Bus2=106_182 phases=3 Linecode=4c_.5 Length=1.2816 Units=m
New Line.LINE106_182 Bus1=106_179 Bus2=106_183 phases=3 Linecode=4c_.5 Length=0.099044 Units=m
New Line.LINE106_183 Bus1=106_180 Bus2=106_184 phases=3 Linecode=4c_.25 Length=0.12832 Units=m
New Line.LINE106_184 Bus1=106_181 Bus2=106_185 phases=3 Linecode=4c_.5 Length=8.7753 Units=m
New Line.LINE106_185 Bus1=106_182 Bus2=106_186 phases=3 Linecode=4c_.5 Length=0.44727 Units=m
New Line.LINE106_186 Bus1=106_183 Bus2=106_187 phases=3 Linecode=4c_.5 Length=0.32555 Units=m
New Line.LINE106_187 Bus1=106_184 Bus2=106_188 phases=3 Linecode=4c_.25 Length=0.42669 Units=m
New Line.LINE106_188 Bus1=106_185 Bus2=106_189 phases=3 Linecode=4c_.5 Length=5.076 Units=m
New Line.LINE106_189 Bus1=106_186 Bus2=106_190 phases=3 Linecode=4c_.5 Length=0.51725 Units=m
New Line.LINE106_190 Bus1=106_187 Bus2=106_191 phases=3 Linecode=4c_.25 Length=0.62831 Units=m
New Line.LINE106_191 Bus1=106_189 Bus2=106_192 phases=3 Linecode=4c_.5 Length=0.34598 Units=m
New Line.LINE106_192 Bus1=106_190 Bus2=106_193 phases=3 Linecode=4c_.5 Length=0.40365 Units=m
New Line.LINE106_193 Bus1=106_191 Bus2=106_194 phases=3 Linecode=4c_.25 Length=1.9717 Units=m
New Line.LINE106_194 Bus1=106_192 Bus2=106_195 phases=3 Linecode=4c_.5 Length=0.22539 Units=m
New Line.LINE106_195 Bus1=106_193 Bus2=106_196 phases=3 Linecode=4c_.5 Length=0.42827 Units=m
New Line.LINE106_196 Bus1=106_194 Bus2=106_197 phases=3 Linecode=4c_.5 Length=1.0027 Units=m
New Line.LINE106_197 Bus1=106_195 Bus2=106_198 phases=3 Linecode=4c_.5 Length=0.22854 Units=m
New Line.LINE106_198 Bus1=106_196 Bus2=106_199 phases=3 Linecode=4c_.5 Length=0.51388 Units=m
New Line.LINE106_199 Bus1=106_197 Bus2=106_200 phases=3 Linecode=4c_.5 Length=0.43545 Units=m
New Line.LINE106_200 Bus1=106_198 Bus2=106_201 phases=3 Linecode=4c_.5 Length=0.23447 Units=m
New Line.LINE106_201 Bus1=106_199 Bus2=106_202 phases=3 Linecode=4c_.3 Length=1.0883 Units=m
New Line.LINE106_202 Bus1=106_200 Bus2=106_203 phases=3 Linecode=4c_.5 Length=0.26308 Units=m
New Line.LINE106_203 Bus1=106_201 Bus2=106_204 phases=3 Linecode=4c_.5 Length=0.77216 Units=m
New Line.LINE106_204 Bus1=106_202 Bus2=106_205 phases=3 Linecode=4c_.3 Length=0.17573 Units=m
New Line.LINE106_205 Bus1=106_203 Bus2=106_206 phases=3 Linecode=4c_.5 Length=0.21349 Units=m
New Line.LINE106_206 Bus1=106_205 Bus2=106_207 phases=3 Linecode=4c_.3 Length=0.5181 Units=m
New Line.LINE106_207 Bus1=106_206 Bus2=106_208 phases=3 Linecode=4c_.5 Length=0.34563 Units=m
New Line.LINE106_208 Bus1=106_207 Bus2=106_209 phases=3 Linecode=4c_.3 Length=3.406 Units=m
New Line.LINE106_209 Bus1=106_208 Bus2=106_210 phases=3 Linecode=4c_.5 Length=0.31667 Units=m
New Line.LINE106_210 Bus1=106_209 Bus2=106_211 phases=3 Linecode=4c_.3 Length=2.9115 Units=m
New Line.LINE106_211 Bus1=106_210 Bus2=106_212 phases=3 Linecode=4c_.5 Length=0.56696 Units=m
New Line.LINE106_212 Bus1=106_212 Bus2=106_213 phases=3 Linecode=4c_.5 Length=0.50264 Units=m
New Line.LINE106_213 Bus1=106_213 Bus2=106_214 phases=3 Linecode=4c_.5 Length=0.60606 Units=m
New Line.LINE106_214 Bus1=106_214 Bus2=106_215 phases=3 Linecode=4c_.5 Length=1.7222 Units=m
New Line.LINE106_215 Bus1=106_215 Bus2=106_216 phases=3 Linecode=4c_.5 Length=1.1374 Units=m
New Line.LINE106_216 Bus1=106_216 Bus2=106_217 phases=3 Linecode=4c_.25 Length=0.77169 Units=m
New Line.LINE106_217 Bus1=106_217 Bus2=106_218 phases=3 Linecode=4c_.25 Length=11.4546 Units=m
New Line.LINE106_218 Bus1=106_218 Bus2=106_219 phases=3 Linecode=4c_.25 Length=0.66339 Units=m
New Line.LINE106_219 Bus1=106_219 Bus2=106_220 phases=3 Linecode=4c_.25 Length=1.3798 Units=m
New Line.LINE106_220 Bus1=106_220 Bus2=106_221 phases=3 Linecode=4c_.25 Length=0.76722 Units=m
New Line.LINE106_221 Bus1=106_221 Bus2=106_222 phases=3 Linecode=3c_95_SAC_ASN Length=0.78506 Units=m
New Line.LINE106_222 Bus1=106_221 Bus2=106_223 phases=3 Linecode=4c_.25 Length=0.5146 Units=m
New Line.LINE106_223 Bus1=106_222 Bus2=106_224 phases=3 Linecode=3c_95_SAC_ASN Length=0.21028 Units=m
New Line.LINE106_224 Bus1=106_223 Bus2=106_225 phases=3 Linecode=4c_.25 Length=5.4601 Units=m
New Line.LINE106_225 Bus1=106_224 Bus2=106_226 phases=3 Linecode=3c_95_SAC_ASN Length=0.079881 Units=m
New Line.LINE106_226 Bus1=106_225 Bus2=106_227 phases=3 Linecode=4c_.25 Length=0.85208 Units=m
New Line.LINE106_227 Bus1=106_226 Bus2=106_228 phases=3 Linecode=3c_95_SAC_ASN Length=0.097576 Units=m
New Line.LINE106_228 Bus1=106_227 Bus2=106_229 phases=3 Linecode=4c_.25 Length=0.36249 Units=m
New Line.LINE106_229 Bus1=106_227 Bus2=106_230 phases=3 Linecode=3c_.06 Length=0.46913 Units=m
New Line.LINE106_230 Bus1=106_227 Bus2=106_231 phases=3 Linecode=4c_.25 Length=1.1613 Units=m
New Line.LINE106_231 Bus1=106_228 Bus2=106_232 phases=3 Linecode=3c_95_SAC_ASN Length=0.058693 Units=m
New Line.LINE106_232 Bus1=106_229 Bus2=106_233 phases=3 Linecode=4c_.25 Length=0.070291 Units=m
New Line.LINE106_233 Bus1=106_230 Bus2=106_234 phases=3 Linecode=3c_.06 Length=0.050289 Units=m
New Line.LINE106_234 Bus1=106_231 Bus2=106_235 phases=3 Linecode=4c_.25 Length=6.2021 Units=m
New Line.LINE106_235 Bus1=106_232 Bus2=106_236 phases=3 Linecode=3c_95_SAC_ASN Length=0.053001 Units=m
New Line.LINE106_236 Bus1=106_233 Bus2=106_237 phases=3 Linecode=4c_.25 Length=0.065438 Units=m
New Line.LINE106_237 Bus1=106_234 Bus2=106_238 phases=3 Linecode=3c_.06 Length=0.061813 Units=m
New Line.LINE106_238 Bus1=106_235 Bus2=106_239 phases=3 Linecode=4c_.25 Length=1.848 Units=m
New Line.LINE106_239 Bus1=106_236 Bus2=106_240 phases=3 Linecode=3c_95_SAC_ASN Length=0.09025 Units=m
New Line.LINE106_240 Bus1=106_237 Bus2=106_241 phases=3 Linecode=4c_.25 Length=0.0864 Units=m
New Line.LINE106_241 Bus1=106_238 Bus2=106_242 phases=3 Linecode=3c_.06 Length=0.05708 Units=m
New Line.LINE106_242 Bus1=106_239 Bus2=106_243 phases=3 Linecode=4c_.25 Length=0.05413 Units=m
New Line.LINE106_243 Bus1=106_240 Bus2=106_244 phases=3 Linecode=3c_95_SAC_ASN Length=0.2952 Units=m
New Line.LINE106_244 Bus1=106_241 Bus2=106_245 phases=3 Linecode=4c_.25 Length=0.094826 Units=m
New Line.LINE106_245 Bus1=106_242 Bus2=106_246 phases=3 Linecode=3c_.06 Length=0.070064 Units=m
New Line.LINE106_246 Bus1=106_243 Bus2=106_247 phases=3 Linecode=4c_.25 Length=0.10607 Units=m
New Line.LINE106_247 Bus1=106_244 Bus2=106_248 phases=3 Linecode=3c_95_SAC_ASN Length=3.5254 Units=m
New Line.LINE106_248 Bus1=106_245 Bus2=106_249 phases=3 Linecode=4c_.25 Length=0.12017 Units=m
New Line.LINE106_249 Bus1=106_246 Bus2=106_250 phases=3 Linecode=3c_.06 Length=0.23745 Units=m
New Line.LINE106_250 Bus1=106_247 Bus2=106_251 phases=3 Linecode=4c_.25 Length=0.081043 Units=m
New Line.LINE106_251 Bus1=106_249 Bus2=106_252 phases=3 Linecode=4c_.25 Length=2.5328 Units=m
New Line.LINE106_252 Bus1=106_250 Bus2=106_253 phases=3 Linecode=3c_.06 Length=0.58824 Units=m
New Line.LINE106_253 Bus1=106_251 Bus2=106_254 phases=3 Linecode=4c_.25 Length=0.10034 Units=m
New Line.LINE106_254 Bus1=106_252 Bus2=106_255 phases=3 Linecode=4c_.25 Length=2.52 Units=m
New Line.LINE106_255 Bus1=106_253 Bus2=106_256 phases=3 Linecode=3c_.06 Length=0.14641 Units=m
New Line.LINE106_256 Bus1=106_254 Bus2=106_257 phases=3 Linecode=4c_.25 Length=0.059034 Units=m
New Line.LINE106_257 Bus1=106_255 Bus2=106_258 phases=3 Linecode=4c_.25 Length=0.66034 Units=m
New Line.LINE106_258 Bus1=106_256 Bus2=106_259 phases=3 Linecode=3c_.06 Length=0.12302 Units=m
New Line.LINE106_259 Bus1=106_257 Bus2=106_260 phases=3 Linecode=4c_.25 Length=0.10547 Units=m
New Line.LINE106_260 Bus1=106_258 Bus2=106_261 phases=3 Linecode=4c_.25 Length=0.16843 Units=m
New Line.LINE106_261 Bus1=106_259 Bus2=106_262 phases=3 Linecode=3c_.06 Length=0.19696 Units=m
New Line.LINE106_262 Bus1=106_260 Bus2=106_263 phases=3 Linecode=4c_.25 Length=0.10928 Units=m
New Line.LINE106_263 Bus1=106_261 Bus2=106_264 phases=3 Linecode=4c_.25 Length=0.16056 Units=m
New Line.LINE106_264 Bus1=106_262 Bus2=106_265 phases=3 Linecode=3c_.06 Length=0.12007 Units=m
New Line.LINE106_265 Bus1=106_263 Bus2=106_266 phases=3 Linecode=4c_.25 Length=1.3992 Units=m
New Line.LINE106_266 Bus1=106_264 Bus2=106_267 phases=3 Linecode=4c_.25 Length=0.25041 Units=m
New Line.LINE106_267 Bus1=106_265 Bus2=106_268 phases=3 Linecode=3c_.06 Length=0.11705 Units=m
New Line.LINE106_268 Bus1=106_266 Bus2=106_269 phases=3 Linecode=4c_.25 Length=0.55924 Units=m
New Line.LINE106_269 Bus1=106_267 Bus2=106_270 phases=3 Linecode=4c_.25 Length=0.17551 Units=m
New Line.LINE106_270 Bus1=106_268 Bus2=106_271 phases=3 Linecode=3c_.06 Length=0.14543 Units=m
New Line.LINE106_271 Bus1=106_269 Bus2=106_272 phases=3 Linecode=4c_.25 Length=0.29018 Units=m
New Line.LINE106_272 Bus1=106_270 Bus2=106_273 phases=3 Linecode=4c_.25 Length=0.2386 Units=m
New Line.LINE106_273 Bus1=106_271 Bus2=106_274 phases=3 Linecode=3c_.06 Length=0.20858 Units=m
New Line.LINE106_274 Bus1=106_272 Bus2=106_275 phases=3 Linecode=4c_.25 Length=0.13101 Units=m
New Line.LINE106_275 Bus1=106_273 Bus2=106_276 phases=3 Linecode=4c_.25 Length=0.31864 Units=m
New Line.LINE106_276 Bus1=106_274 Bus2=106_277 phases=3 Linecode=3c_.06 Length=0.11463 Units=m
New Line.LINE106_277 Bus1=106_275 Bus2=106_278 phases=3 Linecode=4c_.25 Length=0.12561 Units=m
New Line.LINE106_278 Bus1=106_276 Bus2=106_279 phases=3 Linecode=4c_.25 Length=0.1397 Units=m
New Line.LINE106_279 Bus1=106_277 Bus2=106_280 phases=3 Linecode=3c_.06 Length=0.11064 Units=m
New Line.LINE106_280 Bus1=106_278 Bus2=106_281 phases=3 Linecode=4c_.25 Length=0.10107 Units=m
New Line.LINE106_281 Bus1=106_279 Bus2=106_282 phases=3 Linecode=4c_.25 Length=0.15708 Units=m
New Line.LINE106_282 Bus1=106_280 Bus2=106_283 phases=3 Linecode=3c_.06 Length=2.7489 Units=m
New Line.LINE106_283 Bus1=106_281 Bus2=106_284 phases=3 Linecode=4c_.25 Length=0.16096 Units=m
New Line.LINE106_284 Bus1=106_282 Bus2=106_285 phases=3 Linecode=4c_.25 Length=0.2828 Units=m
New Line.LINE106_285 Bus1=106_283 Bus2=106_286 phases=3 Linecode=3c_.06 Length=12.2149 Units=m
New Line.LINE106_286 Bus1=106_284 Bus2=106_287 phases=3 Linecode=4c_.25 Length=0.11132 Units=m
New Line.LINE106_287 Bus1=106_285 Bus2=106_288 phases=3 Linecode=4c_.25 Length=1.455 Units=m
New Line.LINE106_288 Bus1=106_287 Bus2=106_289 phases=3 Linecode=4c_.25 Length=0.16179 Units=m
New Line.LINE106_289 Bus1=106_289 Bus2=106_290 phases=3 Linecode=4c_.25 Length=0.11411 Units=m
New Line.LINE106_290 Bus1=106_290 Bus2=106_291 phases=3 Linecode=4c_.25 Length=0.28241 Units=m
New Line.LINE106_291 Bus1=106_291 Bus2=106_292 phases=3 Linecode=4c_.25 Length=0.38118 Units=m
New Line.LINE106_292 Bus1=106_292 Bus2=106_293 phases=3 Linecode=4c_.25 Length=0.27204 Units=m
New Line.LINE106_293 Bus1=106_293 Bus2=106_294 phases=3 Linecode=4c_.25 Length=0.20763 Units=m
New Line.LINE106_294 Bus1=106_293 Bus2=106_295 phases=3 Linecode=4c_.25 Length=0.2518 Units=m
New Line.LINE106_295 Bus1=106_294 Bus2=106_296 phases=3 Linecode=4c_.25 Length=0.044599 Units=m
New Line.LINE106_296 Bus1=106_295 Bus2=106_297 phases=3 Linecode=3c_300_ASN Length=0.57442 Units=m
New Line.LINE106_297 Bus1=106_295 Bus2=106_298 phases=3 Linecode=4c_.25 Length=1.2644 Units=m
New Line.LINE106_298 Bus1=106_296 Bus2=106_299 phases=3 Linecode=4c_.25 Length=0.056356 Units=m
New Line.LINE106_299 Bus1=106_297 Bus2=106_300 phases=3 Linecode=3c_300_ASN Length=0.080056 Units=m
New Line.LINE106_300 Bus1=106_298 Bus2=106_301 phases=3 Linecode=4c_.25 Length=3.2909 Units=m
New Line.LINE106_301 Bus1=106_299 Bus2=106_302 phases=3 Linecode=4c_.25 Length=0.059405 Units=m
New Line.LINE106_302 Bus1=106_300 Bus2=106_303 phases=3 Linecode=3c_300_ASN Length=0.079511 Units=m
New Line.LINE106_303 Bus1=106_301 Bus2=106_304 phases=3 Linecode=25_SAC_XC Length=0.31124 Units=m
New Line.LINE106_304 Bus1=106_301 Bus2=106_305 phases=3 Linecode=4c_.25 Length=0.37182 Units=m
New Line.LINE106_305 Bus1=106_301 Bus2=106_306 phases=3 Linecode=4c_.25 Length=3.682 Units=m
New Line.LINE106_306 Bus1=106_302 Bus2=106_307 phases=3 Linecode=4c_.25 Length=0.14732 Units=m
New Line.LINE106_307 Bus1=106_303 Bus2=106_308 phases=3 Linecode=3c_300_ASN Length=0.20209 Units=m
New Line.LINE106_308 Bus1=106_304 Bus2=106_309 phases=3 Linecode=25_SAC_XC Length=0.13463 Units=m
New Line.LINE106_309 Bus1=106_305 Bus2=106_310 phases=3 Linecode=4c_.25 Length=0.10435 Units=m
New Line.LINE106_310 Bus1=106_306 Bus2=106_311 phases=3 Linecode=4c_.25 Length=3.5315 Units=m
New Line.LINE106_311 Bus1=106_307 Bus2=106_312 phases=3 Linecode=4c_.25 Length=0.2755 Units=m
New Line.LINE106_312 Bus1=106_308 Bus2=106_313 phases=3 Linecode=3c_300_ASN Length=0.10555 Units=m
New Line.LINE106_313 Bus1=106_309 Bus2=106_314 phases=3 Linecode=25_SAC_XC Length=0.23059 Units=m
New Line.LINE106_314 Bus1=106_310 Bus2=106_315 phases=3 Linecode=4c_.25 Length=0.1325 Units=m
New Line.LINE106_315 Bus1=106_311 Bus2=106_316 phases=3 Linecode=4c_.25 Length=0.51485 Units=m
New Line.LINE106_316 Bus1=106_311 Bus2=106_317 phases=3 Linecode=4c_.25 Length=0.15754 Units=m
New Line.LINE106_317 Bus1=106_312 Bus2=106_318 phases=3 Linecode=4c_.25 Length=0.095131 Units=m