New Line.LINE1 Bus1=1 Bus2=2 phases=3 Linecode=3c_300_SAC_XC Length=0.82412 Units=m
New Line.LINE2 Bus1=2 Bus2=3 phases=3 Linecode=3c_300_SAC_XC Length=0.09188 Units=m
New Line.LINE3 Bus1=3 Bus2=4 phases=3 Linecode=3c_300_SAC_XC Length=0.12053 Units=m
New Line.LINE4 Bus1=4 Bus2=5 phases=3 Linecode=3c_300_SAC_XC Length=1.8529 Units=m
New Line.LINE5 Bus1=5 Bus2=6 phases=3 Linecode=3c_300_SAC_XC Length=0.054708 Units=m
New Line.LINE6 Bus1=6 Bus2=7 phases=3 Linecode=3c_300_SAC_XC Length=0.037643 Units=m
New Line.LINE7 Bus1=7 Bus2=8 phases=3 Linecode=3c_300_SAC_XC Length=0.037337 Units=m
New Line.LINE8 Bus1=8 Bus2=9 phases=3 Linecode=3c_300_SAC_XC Length=0.038052 Units=m
New Line.LINE9 Bus1=9 Bus2=10 phases=3 Linecode=3c_300_SAC_XC Length=0.038079 Units=m
New Line.LINE10 Bus1=10 Bus2=11 phases=3 Linecode=3c_300_SAC_XC Length=0.037577 Units=m
New Line.LINE11 Bus1=11 Bus2=12 phases=3 Linecode=3c_300_SAC_XC Length=0.038013 Units=m
New Line.LINE12 Bus1=12 Bus2=13 phases=3 Linecode=3c_300_SAC_XC Length=0.03677 Units=m
New Line.LINE13 Bus1=13 Bus2=14 phases=3 Linecode=3c_300_SAC_XC Length=0.038275 Units=m
New Line.LINE14 Bus1=14 Bus2=15 phases=3 Linecode=3c_300_SAC_XC Length=0.037578 Units=m
New Line.LINE15 Bus1=15 Bus2=16 phases=3 Linecode=3c_300_SAC_XC Length=2.3102 Units=m
New Line.LINE16 Bus1=16 Bus2=17 phases=3 Linecode=3c_300_SAC_XC Length=0.111 Units=m
New Line.LINE17 Bus1=17 Bus2=18 phases=3 Linecode=3c_300_SAC_XC Length=0.10119 Units=m
New Line.LINE18 Bus1=18 Bus2=19 phases=3 Linecode=3c_300_SAC_XC Length=1.2806 Units=m
New Line.LINE19 Bus1=19 Bus2=20 phases=3 Linecode=3c_300_SAC_XC Length=2.4335 Units=m
New Line.LINE20 Bus1=20 Bus2=21 phases=3 Linecode=3c_300_SAC_XC Length=3.4365 Units=m
New Line.LINE21 Bus1=21 Bus2=22 phases=3 Linecode=3c_300_SAC_XC Length=4.7353 Units=m
New Line.LINE22 Bus1=22 Bus2=23 phases=3 Linecode=3c_300_SAC_XC Length=7.1185 Units=m
New Line.LINE23 Bus1=23 Bus2=24 phases=3 Linecode=3c_300_SAC_XC Length=2.9947 Units=m
New Line.LINE24 Bus1=24 Bus2=25 phases=3 Linecode=3c_300_SAC_XC Length=1.6773 Units=m
New Line.LINE25 Bus1=25 Bus2=26 phases=3 Linecode=3c_300_SAC_XC Length=2.2348 Units=m
New Line.LINE26 Bus1=26 Bus2=27 phases=3 Linecode=3c_300_SAC_XC Length=0.21124 Units=m
New Line.LINE27 Bus1=27 Bus2=28 phases=3 Linecode=4c_300_SAC Length=0.74568 Units=m
New Line.LINE28 Bus1=28 Bus2=29 phases=3 Linecode=4c_300_SAC Length=3.1001 Units=m
New Line.LINE29 Bus1=29 Bus2=30 phases=3 Linecode=4c_300_SAC Length=0.45892 Units=m
New Line.LINE30 Bus1=30 Bus2=31 phases=3 Linecode=4c_300_SAC Length=0.62635 Units=m
New Line.LINE31 Bus1=31 Bus2=32 phases=3 Linecode=4c_300_SAC Length=0.51065 Units=m
New Line.LINE32 Bus1=32 Bus2=33 phases=3 Linecode=4c_300_SAC Length=0.51673 Units=m
New Line.LINE33 Bus1=33 Bus2=34 phases=3 Linecode=4c_.5 Length=0.19544 Units=m
New Line.LINE34 Bus1=34 Bus2=35 phases=3 Linecode=4c_.5 Length=0.15274 Units=m
New Line.LINE35 Bus1=35 Bus2=36 phases=3 Linecode=4c_.5 Length=6.1429 Units=m
New Line.LINE36 Bus1=36 Bus2=37 phases=3 Linecode=4c_.5 Length=0.049041 Units=m
New Line.LINE37 Bus1=37 Bus2=38 phases=3 Linecode=4c_.5 Length=0.043012 Units=m
New Line.LINE38 Bus1=38 Bus2=39 phases=3 Linecode=4c_.5 Length=0.035609 Units=m
New Line.LINE39 Bus1=39 Bus2=40 phases=3 Linecode=4c_.5 Length=0.039395 Units=m
New Line.LINE40 Bus1=40 Bus2=41 phases=3 Linecode=4c_.5 Length=0.03214 Units=m
New Line.LINE41 Bus1=41 Bus2=42 phases=3 Linecode=4c_.5 Length=0.036057 Units=m
New Line.LINE42 Bus1=42 Bus2=43 phases=3 Linecode=4c_.5 Length=0.053366 Units=m
New Line.LINE43 Bus1=43 Bus2=44 phases=3 Linecode=4c_.5 Length=3.3579 Units=m
New Line.LINE44 Bus1=44 Bus2=45 phases=3 Linecode=4c_.5 Length=2.0951 Units=m
New Line.LINE45 Bus1=45 Bus2=46 phases=3 Linecode=4c_.5 Length=9.7005 Units=m
New Line.LINE46 Bus1=46 Bus2=47 phases=3 Linecode=4c_.5 Length=6.959 Units=m
New Line.LINE47 Bus1=47 Bus2=48 phases=3 Linecode=4c_.5 Length=8.8034 Units=m
New Line.LINE48 Bus1=48 Bus2=49 phases=3 Linecode=4c_.5 Length=6.9545 Units=m
New Line.LINE49 Bus1=49 Bus2=50 phases=3 Linecode=4c_.5 Length=0.24223 Units=m
New Line.LINE50 Bus1=50 Bus2=51 phases=3 Linecode=4c_.5 Length=6.0988 Units=m
New Line.LINE51 Bus1=51 Bus2=52 phases=3 Linecode=4c_.5 Length=1.4314 Units=m
New Line.LINE52 Bus1=52 Bus2=53 phases=3 Linecode=4c_.5 Length=0.08507 Units=m
New Line.LINE53 Bus1=53 Bus2=54 phases=3 Linecode=4c_.5 Length=0.072561 Units=m
New Line.LINE54 Bus1=54 Bus2=55 phases=3 Linecode=4c_.5 Length=0.063033 Units=m
New Line.LINE55 Bus1=55 Bus2=56 phases=3 Linecode=4c_.5 Length=0.060728 Units=m
New Line.LINE56 Bus1=56 Bus2=57 phases=3 Linecode=4c_.5 Length=0.061717 Units=m
New Line.LINE57 Bus1=57 Bus2=58 phases=3 Linecode=4c_.5 Length=0.063127 Units=m
New Line.LINE58 Bus1=58 Bus2=59 phases=3 Linecode=4c_.5 Length=0.067623 Units=m
New Line.LINE59 Bus1=59 Bus2=60 phases=3 Linecode=4c_.5 Length=0.079756 Units=m
New Line.LINE60 Bus1=60 Bus2=61 phases=3 Linecode=4c_.5 Length=0.28445 Units=m
New Line.LINE61 Bus1=61 Bus2=62 phases=3 Linecode=4c_.5 Length=0.24242 Units=m
New Line.LINE62 Bus1=62 Bus2=63 phases=3 Linecode=4c_.5 Length=3.6132 Units=m
New Line.LINE63 Bus1=63 Bus2=64 phases=3 Linecode=25_SAC_XC Length=7.0492 Units=m
New Line.LINE64 Bus1=63 Bus2=65 phases=3 Linecode=4c_.5 Length=12.8573 Units=m
New Line.LINE65 Bus1=65 Bus2=66 phases=3 Linecode=4c_.5 Length=0.80499 Units=m
New Line.LINE66 Bus1=66 Bus2=67 phases=3 Linecode=4c_.5 Length=5.3219 Units=m
New Line.LINE68 Bus1=67 Bus2=69 phases=3 Linecode=4c_.5 Length=10.9188 Units=m
New Line.LINE70 Bus1=69 Bus2=71 phases=3 Linecode=4c_.5 Length=7.8706 Units=m
New Line.LINE72 Bus1=71 Bus2=73 phases=3 Linecode=4c_.5 Length=4.31 Units=m
New Line.LINE74 Bus1=73 Bus2=75 phases=3 Linecode=4c_.5 Length=2.0834 Units=m
New Line.LINE76 Bus1=75 Bus2=77 phases=3 Linecode=4c_.5 Length=1.6988 Units=m
New Line.LINE78 Bus1=77 Bus2=79 phases=3 Linecode=4c_.5 Length=0.036673 Units=m
New Line.LINE81 Bus1=79 Bus2=82 phases=3 Linecode=4c_.5 Length=1.8783 Units=m
New Line.LINE84 Bus1=82 Bus2=85 phases=3 Linecode=4c_.5 Length=0.24734 Units=m
New Line.LINE87 Bus1=85 Bus2=88 phases=3 Linecode=4c_.5 Length=0.20616 Units=m
New Line.LINE90 Bus1=88 Bus2=91 phases=3 Linecode=4c_.5 Length=0.3 Units=m
New Line.LINE93 Bus1=91 Bus2=94 phases=3 Linecode=4c_.5 Length=0.8 Units=m
New Line.LINE96 Bus1=94 Bus2=97 phases=3 Linecode=4c_.5 Length=0.43588 Units=m
New Line.LINE98 Bus1=97 Bus2=99 phases=3 Linecode=4c_.5 Length=0.61635 Units=m
New Line.LINE99 Bus1=99 Bus2=100 phases=3 Linecode=4c_.5 Length=0.4717 Units=m
New Line.LINE100 Bus1=100 Bus2=101 phases=3 Linecode=4c_.5 Length=0.70752 Units=m
New Line.LINE101 Bus1=101 Bus2=102 phases=3 Linecode=4c_.5 Length=0.52321 Units=m
New Line.LINE102 Bus1=102 Bus2=103 phases=3 Linecode=4c_.5 Length=0.6612 Units=m
New Line.LINE103 Bus1=103 Bus2=104 phases=3 Linecode=4c_.5 Length=0.24707 Units=m
New Line.LINE104 Bus1=104 Bus2=105 phases=3 Linecode=4c_.5 Length=0.22448 Units=m
New Line.LINE105 Bus1=105 Bus2=106 phases=3 Linecode=4c_.5 Length=0.26073 Units=m
New Line.LINE106 Bus1=106 Bus2=107 phases=3 Linecode=4c_.5 Length=1.5874 Units=m
New Line.LINE107 Bus1=107 Bus2=108 phases=3 Linecode=4c_.5 Length=8.7301 Units=m
New Line.LINE108 Bus1=108 Bus2=109 phases=3 Linecode=4c_.5 Length=7.9186 Units=m
New Line.LINE109 Bus1=109 Bus2=110 phases=3 Linecode=4c_.5 Length=6.9864 Units=m
New Line.LINE111 Bus1=110 Bus2=112 phases=3 Linecode=4c_.5 Length=7.5444 Units=m
New Line.LINE113 Bus1=112 Bus2=114 phases=3 Linecode=4c_.5 Length=1.8976 Units=m
New Line.LINE116 Bus1=114 Bus2=117 phases=3 Linecode=4c_.5 Length=0.47674 Units=m
New Line.LINE120 Bus1=117 Bus2=121 phases=3 Linecode=4c_.5 Length=1.0783 Units=m
New Line.LINE123 Bus1=121 Bus2=124 phases=3 Linecode=4c_.5 Length=3.4917 Units=m
New Line.LINE127 Bus1=124 Bus2=128 phases=3 Linecode=4c_.5 Length=3.4917 Units=m
New Line.LINE131 Bus1=128 Bus2=132 phases=3 Linecode=4c_.5 Length=0.47424 Units=m
New Line.LINE135 Bus1=132 Bus2=136 phases=3 Linecode=4c_.5 Length=1.4118 Units=m
New Line.LINE140 Bus1=136 Bus2=141 phases=3 Linecode=4c_.5 Length=0.54017 Units=m
New Line.LINE145 Bus1=141 Bus2=146 phases=3 Linecode=4c_.5 Length=0.12371 Units=m
New Line.LINE149 Bus1=146 Bus2=150 phases=3 Linecode=4c_.5 Length=0.10124 Units=m
New Line.LINE152 Bus1=150 Bus2=153 phases=3 Linecode=4c_.5 Length=0.30484 Units=m
New Line.LINE156 Bus1=153 Bus2=157 phases=3 Linecode=4c_.5 Length=0.49349 Units=m
New Line.LINE161 Bus1=157 Bus2=162 phases=3 Linecode=4c_.5 Length=0.091592 Units=m
New Line.LINE166 Bus1=162 Bus2=167 phases=3 Linecode=4c_.5 Length=0.19424 Units=m
New Line.LINE170 Bus1=167 Bus2=171 phases=3 Linecode=4c_.5 Length=0.099464 Units=m
New Line.LINE174 Bus1=171 Bus2=175 phases=3 Linecode=4c_.5 Length=0.12702 Units=m
New Line.LINE178 Bus1=175 Bus2=179 phases=3 Linecode=4c_.5 Length=0.14356 Units=m
New Line.LINE182 Bus1=179 Bus2=183 phases=3 Linecode=4c_.5 Length=0.099044 Units=m
New Line.LINE186 Bus1=183 Bus2=187 phases=3 Linecode=4c_.5 Length=0.32555 Units=m
New Line.LINE190 Bus1=187 Bus2=191 phases=3 Linecode=4c_.25 Length=0.62831 Units=m
New Line.LINE193 Bus1=191 Bus2=194 phases=3 Linecode=4c_.25 Length=1.9717 Units=m
New Line.LINE196 Bus1=194 Bus2=197 phases=3 Linecode=4c_.5 Length=1.0027 Units=m
New Line.LINE199 Bus1=197 Bus2=200 phases=3 Linecode=4c_.5 Length=0.43545 Units=m
New Line.LINE202 Bus1=200 Bus2=203 phases=3 Linecode=4c_.5 Length=0.26308 Units=m
New Line.LINE205 Bus1=203 Bus2=206 phases=3 Linecode=4c_.5 Length=0.21349 Units=m
New Line.LINE207 Bus1=206 Bus2=208 phases=3 Linecode=4c_.5 Length=0.34563 Units=m
New Line.LINE209 Bus1=208 Bus2=210 phases=3 Linecode=4c_.5 Length=0.31667 Units=m
New Line.LINE211 Bus1=210 Bus2=212 phases=3 Linecode=4c_.5 Length=0.56696 Units=m
New Line.LINE212 Bus1=212 Bus2=213 phases=3 Linecode=4c_.5 Length=0.50264 Units=m
New Line.LINE213 Bus1=213 Bus2=214 phases=3 Linecode=4c_.5 Length=0.60606 Units=m
New Line.LINE214 Bus1=214 Bus2=215 phases=3 Linecode=4c_.5 Length=1.7222 Units=m
New Line.LINE215 Bus1=215 Bus2=216 phases=3 Linecode=4c_.5 Length=1.1374 Units=m
New Line.LINE216 Bus1=216 Bus2=217 phases=3 Linecode=4c_.25 Length=0.77169 Units=m
New Line.LINE217 Bus1=217 Bus2=218 phases=3 Linecode=4c_.25 Length=11.4546 Units=m
New Line.LINE218 Bus1=218 Bus2=219 phases=3 Linecode=4c_.25 Length=0.66339 Units=m
New Line.LINE219 Bus1=219 Bus2=220 phases=3 Linecode=4c_.25 Length=1.3798 Units=m
New Line.LINE220 Bus1=220 Bus2=221 phases=3 Linecode=4c_.25 Length=0.76722 Units=m
New Line.LINE222 Bus1=221 Bus2=223 phases=3 Linecode=4c_.25 Length=0.5146 Units=m
New Line.LINE224 Bus1=223 Bus2=225 phases=3 Linecode=4c_.25 Length=5.4601 Units=m
New Line.LINE226 Bus1=225 Bus2=227 phases=3 Linecode=4c_.25 Length=0.85208 Units=m
New Line.LINE296 Bus1=295 Bus2=297 phases=3 Linecode=3c_300_ASN Length=0.57442 Units=m
New Line.LINE299 Bus1=297 Bus2=300 phases=3 Linecode=3c_300_ASN Length=0.080056 Units=m
New Line.LINE302 Bus1=300 Bus2=303 phases=3 Linecode=3c_300_ASN Length=0.079511 Units=m
New Line.LINE305 Bus1=301 Bus2=306 phases=3 Linecode=4c_.25 Length=3.682 Units=m
New Line.LINE307 Bus1=303 Bus2=308 phases=3 Linecode=3c_300_ASN Length=0.20209 Units=m
New Line.LINE310 Bus1=306 Bus2=311 phases=3 Linecode=4c_.25 Length=3.5315 Units=m
New Line.LINE312 Bus1=308 Bus2=313 phases=3 Linecode=3c_300_ASN Length=0.10555 Units=m
New Line.LINE316 Bus1=311 Bus2=317 phases=3 Linecode=4c_.25 Length=0.15754 Units=m
New Line.LINE318 Bus1=313 Bus2=319 phases=3 Linecode=3c_300_ASN Length=0.081597 Units=m
New Line.LINE322 Bus1=317 Bus2=323 phases=3 Linecode=4c_.25 Length=1.0573 Units=m
New Line.LINE324 Bus1=319 Bus2=325 phases=3 Linecode=3c_300_ASN Length=0.18337 Units=m
New Line.LINE328 Bus1=323 Bus2=329 phases=3 Linecode=4c_.25 Length=2.1212 Units=m
New Line.LINE330 Bus1=325 Bus2=331 phases=3 Linecode=3c_300_ASN Length=0.50248 Units=m
New Line.LINE335 Bus1=329 Bus2=336 phases=3 Linecode=4c_.25 Length=2.2386 Units=m
New Line.LINE337 Bus1=331 Bus2=338 phases=3 Linecode=3c_300_ASN Length=1.3216 Units=m
New Line.LINE343 Bus1=336 Bus2=344 phases=3 Linecode=4c_.25 Length=4.804 Units=m
New Line.LINE345 Bus1=338 Bus2=346 phases=3 Linecode=2c_.007 Length=0.20502 Units=m
New Line.LINE352 Bus1=344 Bus2=353 phases=3 Linecode=4c_.25 Length=1.3613 Units=m
New Line.LINE355 Bus1=346 Bus2=356 phases=3 Linecode=2c_.007 Length=0.15127 Units=m
New Line.LINE362 Bus1=353 Bus2=363 phases=3 Linecode=4c_.25 Length=4.0984 Units=m
New Line.LINE364 Bus1=356 Bus2=365 phases=3 Linecode=2c_.007 Length=0.1789 Units=m
New Line.LINE371 Bus1=363 Bus2=372 phases=3 Linecode=4c_.25 Length=0.16105 Units=m
New Line.LINE373 Bus1=365 Bus2=374 phases=3 Linecode=2c_.007 Length=0.31847 Units=m
New Line.LINE379 Bus1=372 Bus2=380 phases=3 Linecode=4c_.25 Length=10.3759 Units=m
New Line.LINE381 Bus1=374 Bus2=382 phases=3 Linecode=2c_.007 Length=0.28258 Units=m
New Line.LINE386 Bus1=380 Bus2=387 phases=3 Linecode=4c_.25 Length=0.45554 Units=m
New Line.LINE388 Bus1=382 Bus2=389 phases=3 Linecode=2c_.007 Length=0.098184 Units=m
New Line.LINE393 Bus1=387 Bus2=394 phases=3 Linecode=4c_300 Length=0.41499 Units=m
New Line.LINE394 Bus1=389 Bus2=395 phases=3 Linecode=2c_.007 Length=0.096187 Units=m
New Line.LINE399 Bus1=394 Bus2=400 phases=3 Linecode=4c_300 Length=0.23559 Units=m
New Line.LINE400 Bus1=395 Bus2=401 phases=3 Linecode=2c_.007 Length=0.16575 Units=m
New Line.LINE403 Bus1=400 Bus2=404 phases=3 Linecode=4c_300 Length=0.34082 Units=m
New Line.LINE404 Bus1=401 Bus2=405 phases=3 Linecode=2c_.007 Length=0.1642 Units=m
New Line.LINE407 Bus1=404 Bus2=408 phases=3 Linecode=4c_300 Length=0.21326 Units=m
New Line.LINE408 Bus1=405 Bus2=409 phases=3 Linecode=2c_.007 Length=1.3764 Units=m
New Line.LINE411 Bus1=408 Bus2=412 phases=3 Linecode=4c_300 Length=0.35823 Units=m
New Line.LINE412 Bus1=409 Bus2=413 phases=3 Linecode=2c_.007 Length=0.2552 Units=m
New Line.LINE415 Bus1=412 Bus2=416 phases=3 Linecode=4c_300 Length=0.35869 Units=m
New Line.LINE416 Bus1=413 Bus2=417 phases=3 Linecode=2c_.007 Length=0.070935 Units=m
New Line.LINE420 Bus1=416 Bus2=421 phases=3 Linecode=4c_300 Length=0.35436 Units=m
New Line.LINE421 Bus1=417 Bus2=422 phases=3 Linecode=2c_.007 Length=0.11261 Units=m
New Line.LINE424 Bus1=421 Bus2=425 phases=3 Linecode=4c_300 Length=0.32267 Units=m
New Line.LINE425 Bus1=422 Bus2=426 phases=3 Linecode=2c_.007 Length=0.32758 Units=m
New Line.LINE428 Bus1=425 Bus2=429 phases=3 Linecode=4c_300 Length=0.6364 Units=m
New Line.LINE429 Bus1=426 Bus2=430 phases=3 Linecode=2c_.007 Length=0.18639 Units=m
New Line.LINE432 Bus1=429 Bus2=433 phases=3 Linecode=4_PSC Length=0.26531 Units=m
New Line.LINE434 Bus1=430 Bus2=435 phases=3 Linecode=2c_.007 Length=0.079906 Units=m
New Line.LINE436 Bus1=433 Bus2=437 phases=3 Linecode=4_PSC Length=0.10017 Units=m
New Line.LINE438 Bus1=435 Bus2=439 phases=3 Linecode=2c_.007 Length=3.6442 Units=m
New Line.LINE440 Bus1=437 Bus2=441 phases=3 Linecode=4_PSC Length=0.10531 Units=m
New Line.LINE441 Bus1=439 Bus2=442 phases=3 Linecode=2c_.007 Length=7.3755 Units=m
New Line.LINE443 Bus1=441 Bus2=444 phases=3 Linecode=4_PSC Length=0.099323 Units=m
New Line.LINE445 Bus1=444 Bus2=446 phases=3 Linecode=4_PSC Length=0.091925 Units=m
New Line.LINE447 Bus1=446 Bus2=448 phases=3 Linecode=4_PSC Length=0.10247 Units=m
New Line.LINE449 Bus1=448 Bus2=450 phases=3 Linecode=4_PSC Length=0.16377 Units=m
New Line.LINE451 Bus1=450 Bus2=452 phases=3 Linecode=4_PSC Length=0.094557 Units=m
New Line.LINE453 Bus1=452 Bus2=454 phases=3 Linecode=4_PSC Length=0.086331 Units=m
New Line.LINE455 Bus1=454 Bus2=456 phases=3 Linecode=4_PSC Length=0.103 Units=m
New Line.LINE457 Bus1=456 Bus2=458 phases=3 Linecode=4_PSC Length=2.2849 Units=m
New Line.LINE458 Bus1=458 Bus2=459 phases=3 Linecode=4_PSC Length=3.1607 Units=m
New Line.LINECmpd_0 Bus1=227 Bus2=295 phases=3 Linecode=4c_.25 Length=14.168687 Units=m
New Line.LINECmpd_1 Bus1=227 Bus2=286 phases=3 Linecode=3c_.06 Length=17.780656 Units=m
New Line.LINECmpd_2 Bus1=301 Bus2=367 phases=3 Linecode=25_SAC_XC Length=10.65744 Units=m
New Line.LINECmpd_3 Bus1=295 Bus2=301 phases=3 Linecode=4c_.25 Length=4.5553 Units=m
