New Line.LINE188_1 Bus1=188_1 Bus2=188_2 phases=3 Linecode=4c_.2 Length=0.33734 Units=m
New Line.LINE188_2 Bus1=188_2 Bus2=188_3 phases=3 Linecode=4c_.2 Length=0.064847 Units=m
New Line.LINE188_3 Bus1=188_3 Bus2=188_4 phases=3 Linecode=4c_.2 Length=0.066273 Units=m
New Line.LINE188_4 Bus1=188_4 Bus2=188_5 phases=3 Linecode=4c_.2 Length=0.059682 Units=m
New Line.LINE188_5 Bus1=188_5 Bus2=188_6 phases=3 Linecode=4c_.2 Length=0.073824 Units=m
New Line.LINE188_6 Bus1=188_6 Bus2=188_7 phases=3 Linecode=4c_.2 Length=0.064537 Units=m
New Line.LINE188_7 Bus1=188_7 Bus2=188_8 phases=3 Linecode=4c_.2 Length=0.062426 Units=m
New Line.LINE188_8 Bus1=188_8 Bus2=188_9 phases=3 Linecode=4c_.2 Length=0.13241 Units=m
New Line.LINE188_9 Bus1=188_9 Bus2=188_10 phases=3 Linecode=4c_.2 Length=0.054583 Units=m
New Line.LINE188_10 Bus1=188_10 Bus2=188_11 phases=3 Linecode=4c_.2 Length=0.11672 Units=m
New Line.LINE188_11 Bus1=188_11 Bus2=188_12 phases=3 Linecode=4c_.2 Length=0.2913 Units=m
New Line.LINE188_12 Bus1=188_12 Bus2=188_13 phases=3 Linecode=4c_.2 Length=0.051894 Units=m
New Line.LINE188_13 Bus1=188_13 Bus2=188_14 phases=3 Linecode=4c_.2 Length=0.057871 Units=m
New Line.LINE188_14 Bus1=188_14 Bus2=188_15 phases=3 Linecode=4c_.2 Length=0.06237 Units=m
New Line.LINE188_15 Bus1=188_15 Bus2=188_16 phases=3 Linecode=4c_.2 Length=0.058215 Units=m
New Line.LINE188_16 Bus1=188_16 Bus2=188_17 phases=3 Linecode=4c_.2 Length=0.056035 Units=m
New Line.LINE188_17 Bus1=188_17 Bus2=188_18 phases=3 Linecode=4c_.2 Length=0.05558 Units=m
New Line.LINE188_18 Bus1=188_18 Bus2=188_19 phases=3 Linecode=4c_.2 Length=0.061131 Units=m
New Line.LINE188_19 Bus1=188_19 Bus2=188_20 phases=3 Linecode=4c_.2 Length=0.060008 Units=m
New Line.LINE188_20 Bus1=188_20 Bus2=188_21 phases=3 Linecode=4c_.2 Length=0.071063 Units=m
New Line.LINE188_21 Bus1=188_21 Bus2=188_22 phases=3 Linecode=4c_.2 Length=0.05831 Units=m
New Line.LINE188_22 Bus1=188_22 Bus2=188_23 phases=3 Linecode=4c_.2 Length=0.091984 Units=m
New Line.LINE188_23 Bus1=188_23 Bus2=188_24 phases=3 Linecode=4c_.2 Length=0.14053 Units=m
New Line.LINE188_24 Bus1=188_24 Bus2=188_25 phases=3 Linecode=4c_.2 Length=0.642 Units=m
New Line.LINE188_25 Bus1=188_25 Bus2=188_26 phases=3 Linecode=4c_.2 Length=1.5219 Units=m
New Line.LINE188_26 Bus1=188_26 Bus2=188_27 phases=3 Linecode=4c_.2 Length=2.8635 Units=m
New Line.LINE188_27 Bus1=188_27 Bus2=188_28 phases=3 Linecode=4c_.2 Length=1.1873 Units=m
New Line.LINE188_28 Bus1=188_28 Bus2=188_29 phases=3 Linecode=4c_.2 Length=12.4934 Units=m
New Line.LINE188_29 Bus1=188_29 Bus2=188_30 phases=3 Linecode=4c_.2 Length=0.41378 Units=m
New Line.LINE188_30 Bus1=188_30 Bus2=188_31 phases=3 Linecode=4c_.2 Length=0.42967 Units=m
New Line.LINE188_31 Bus1=188_31 Bus2=188_32 phases=3 Linecode=4c_.2 Length=0.17982 Units=m
New Line.LINE188_32 Bus1=188_32 Bus2=188_33 phases=3 Linecode=4c_.2 Length=0.14807 Units=m
New Line.LINE188_33 Bus1=188_33 Bus2=188_34 phases=3 Linecode=4c_.2 Length=0.11498 Units=m
New Line.LINE188_34 Bus1=188_34 Bus2=188_35 phases=3 Linecode=4c_.2 Length=0.13836 Units=m
New Line.LINE188_35 Bus1=188_35 Bus2=188_36 phases=3 Linecode=4c_.2 Length=0.13403 Units=m
New Line.LINE188_36 Bus1=188_36 Bus2=188_37 phases=3 Linecode=4c_.2 Length=0.2274 Units=m
New Line.LINE188_37 Bus1=188_37 Bus2=188_38 phases=3 Linecode=4c_.2 Length=0.27726 Units=m
New Line.LINE188_38 Bus1=188_38 Bus2=188_39 phases=3 Linecode=4c_.2 Length=0.38741 Units=m
New Line.LINE188_39 Bus1=188_39 Bus2=188_40 phases=3 Linecode=4c_.2 Length=1.3827 Units=m
New Line.LINE188_40 Bus1=188_40 Bus2=188_41 phases=3 Linecode=4c_.2 Length=16.6893 Units=m
New Line.LINE188_41 Bus1=188_41 Bus2=188_42 phases=3 Linecode=3c_25_SAC_XC Length=1.2797 Units=m
New Line.LINE188_42 Bus1=188_41 Bus2=188_43 phases=3 Linecode=4c_.2 Length=9.3467 Units=m
New Line.LINE188_43 Bus1=188_42 Bus2=188_44 phases=3 Linecode=3c_25_SAC_XC Length=0.83093 Units=m
New Line.LINE188_44 Bus1=188_43 Bus2=188_45 phases=3 Linecode=2c_.0225 Length=5.3567 Units=m
New Line.LINE188_45 Bus1=188_43 Bus2=188_46 phases=3 Linecode=4c_.2 Length=2.5824 Units=m
New Line.LINE188_46 Bus1=188_44 Bus2=188_47 phases=3 Linecode=3c_25_SAC_XC Length=1.1061 Units=m
New Line.LINE188_47 Bus1=188_45 Bus2=188_48 phases=3 Linecode=2c_.0225 Length=1.1879 Units=m
New Line.LINE188_48 Bus1=188_46 Bus2=188_49 phases=3 Linecode=4c_.2 Length=13.0237 Units=m
New Line.LINE188_49 Bus1=188_47 Bus2=188_50 phases=3 Linecode=3c_25_SAC_XC Length=1.0336 Units=m
New Line.LINE188_50 Bus1=188_48 Bus2=188_51 phases=3 Linecode=2c_.0225 Length=0.53002 Units=m
New Line.LINE188_51 Bus1=188_49 Bus2=188_52 phases=3 Linecode=4c_.1 Length=0.81214 Units=m
New Line.LINE188_52 Bus1=188_50 Bus2=188_53 phases=3 Linecode=3c_25_SAC_XC Length=2.2896 Units=m
New Line.LINE188_53 Bus1=188_51 Bus2=188_54 phases=3 Linecode=2c_.0225 Length=0.37144 Units=m
New Line.LINE188_54 Bus1=188_52 Bus2=188_55 phases=3 Linecode=25_SAC_XC Length=0.61647 Units=m
New Line.LINE188_55 Bus1=188_52 Bus2=188_56 phases=3 Linecode=4c_.1 Length=3.2015 Units=m
New Line.LINE188_56 Bus1=188_53 Bus2=188_57 phases=3 Linecode=3c_25_SAC_XC Length=1.3029 Units=m
New Line.LINE188_57 Bus1=188_54 Bus2=188_58 phases=3 Linecode=2c_.0225 Length=0.92124 Units=m
New Line.LINE188_58 Bus1=188_55 Bus2=188_59 phases=3 Linecode=25_SAC_XC Length=0.64901 Units=m
New Line.LINE188_59 Bus1=188_56 Bus2=188_60 phases=3 Linecode=4c_.1 Length=0.34229 Units=m
New Line.LINE188_60 Bus1=188_56 Bus2=188_61 phases=3 Linecode=4c_.1 Length=5.9214 Units=m
New Line.LINE188_61 Bus1=188_57 Bus2=188_62 phases=3 Linecode=3c_25_SAC_XC Length=1.5132 Units=m
New Line.LINE188_62 Bus1=188_58 Bus2=188_63 phases=3 Linecode=2c_.0225 Length=0.87396 Units=m
New Line.LINE188_63 Bus1=188_59 Bus2=188_64 phases=3 Linecode=25_SAC_XC Length=0.56463 Units=m
New Line.LINE188_64 Bus1=188_60 Bus2=188_65 phases=3 Linecode=4c_.1 Length=0.12594 Units=m
New Line.LINE188_65 Bus1=188_61 Bus2=188_66 phases=3 Linecode=4c_.1 Length=1.4943 Units=m
New Line.LINE188_66 Bus1=188_62 Bus2=188_67 phases=3 Linecode=3c_25_SAC_XC Length=24.7958 Units=m
New Line.LINE188_67 Bus1=188_63 Bus2=188_68 phases=3 Linecode=2c_.0225 Length=2.4693 Units=m
New Line.LINE188_68 Bus1=188_64 Bus2=188_69 phases=3 Linecode=25_SAC_XC Length=1.3361 Units=m
New Line.LINE188_69 Bus1=188_65 Bus2=188_70 phases=3 Linecode=4c_.1 Length=0.07398 Units=m
New Line.LINE188_70 Bus1=188_66 Bus2=188_71 phases=3 Linecode=4c_.1 Length=5.3548 Units=m
New Line.LINE188_71 Bus1=188_67 Bus2=188_72 phases=3 Linecode=4_PC Length=0.032164 Units=m
New Line.LINE188_72 Bus1=188_67 Bus2=188_73 phases=3 Linecode=3c_25_SAC_XC Length=24.7471 Units=m
New Line.LINE188_73 Bus1=188_68 Bus2=188_74 phases=3 Linecode=2c_.0225 Length=0.8482 Units=m
New Line.LINE188_74 Bus1=188_69 Bus2=188_75 phases=3 Linecode=25_SAC_XC Length=0.62867 Units=m
New Line.LINE188_75 Bus1=188_70 Bus2=188_76 phases=3 Linecode=4c_.1 Length=0.040249 Units=m
New Line.LINE188_76 Bus1=188_71 Bus2=188_77 phases=3 Linecode=4c_120_SAC Length=3.1125 Units=m
New Line.LINE188_77 Bus1=188_72 Bus2=188_78 phases=3 Linecode=4_PC Length=0.52776 Units=m
New Line.LINE188_78 Bus1=188_73 Bus2=188_79 phases=3 Linecode=25_SAC_XC Length=6.7319 Units=m
New Line.LINE188_79 Bus1=188_74 Bus2=188_80 phases=3 Linecode=2c_.0225 Length=0.74108 Units=m
New Line.LINE188_80 Bus1=188_75 Bus2=188_81 phases=3 Linecode=25_SAC_XC Length=9.5883 Units=m
New Line.LINE188_81 Bus1=188_76 Bus2=188_82 phases=3 Linecode=4c_.1 Length=0.037536 Units=m
New Line.LINE188_82 Bus1=188_77 Bus2=188_83 phases=3 Linecode=2c Length=0.11101 Units=m
New Line.LINE188_83 Bus1=188_77 Bus2=188_84 phases=3 Linecode=25_PSC Length=0.092821 Units=m
New Line.LINE188_84 Bus1=188_77 Bus2=188_85 phases=3 Linecode=4c_120_SAC Length=0.055868 Units=m
New Line.LINE188_85 Bus1=188_78 Bus2=188_86 phases=3 Linecode=4_PC Length=0.18625 Units=m
New Line.LINE188_86 Bus1=188_80 Bus2=188_87 phases=3 Linecode=2c_.0225 Length=0.59383 Units=m
New Line.LINE188_87 Bus1=188_81 Bus2=188_88 phases=3 Linecode=25_SAC_XC Length=4.6393 Units=m
New Line.LINE188_88 Bus1=188_82 Bus2=188_89 phases=3 Linecode=4c_.1 Length=0.062201 Units=m
New Line.LINE188_89 Bus1=188_83 Bus2=188_90 phases=3 Linecode=2c Length=0.071 Units=m
New Line.LINE188_90 Bus1=188_85 Bus2=188_91 phases=3 Linecode=4c_120_SAC Length=10.2641 Units=m
New Line.LINE188_91 Bus1=188_86 Bus2=188_92 phases=3 Linecode=4_PC Length=0.1863 Units=m
New Line.LINE188_92 Bus1=188_87 Bus2=188_93 phases=3 Linecode=2c_.0225 Length=4.113 Units=m
New Line.LINE188_93 Bus1=188_88 Bus2=188_94 phases=3 Linecode=25_SAC_XC Length=0.33927 Units=m
New Line.LINE188_94 Bus1=188_89 Bus2=188_95 phases=3 Linecode=4c_.1 Length=0.060804 Units=m
New Line.LINE188_95 Bus1=188_90 Bus2=188_96 phases=3 Linecode=2c Length=0.11821 Units=m
New Line.LINE188_96 Bus1=188_91 Bus2=188_97 phases=3 Linecode=4c_.1 Length=10.3777 Units=m
New Line.LINE188_97 Bus1=188_92 Bus2=188_98 phases=3 Linecode=4_PC Length=0.27674 Units=m
New Line.LINE188_98 Bus1=188_93 Bus2=188_99 phases=3 Linecode=2c_.0225 Length=1.114 Units=m
New Line.LINE188_99 Bus1=188_94 Bus2=188_100 phases=3 Linecode=25_SAC_XC Length=0.21247 Units=m
New Line.LINE188_100 Bus1=188_95 Bus2=188_101 phases=3 Linecode=4c_.1 Length=0.041772 Units=m
New Line.LINE188_101 Bus1=188_96 Bus2=188_102 phases=3 Linecode=2c Length=0.11487 Units=m
New Line.LINE188_102 Bus1=188_97 Bus2=188_103 phases=3 Linecode=4c_.1 Length=7.2339 Units=m
New Line.LINE188_103 Bus1=188_98 Bus2=188_104 phases=3 Linecode=4_PC Length=0.2031 Units=m
New Line.LINE188_104 Bus1=188_99 Bus2=188_105 phases=3 Linecode=2c_.0225 Length=0.33548 Units=m
New Line.LINE188_105 Bus1=188_100 Bus2=188_106 phases=3 Linecode=25_SAC_XC Length=0.212 Units=m
New Line.LINE188_106 Bus1=188_101 Bus2=188_107 phases=3 Linecode=4c_.1 Length=0.065031 Units=m
New Line.LINE188_107 Bus1=188_102 Bus2=188_108 phases=3 Linecode=2c Length=0.15306 Units=m
New Line.LINE188_108 Bus1=188_103 Bus2=188_109 phases=3 Linecode=4_PC Length=0.23993 Units=m
New Line.LINE188_109 Bus1=188_103 Bus2=188_110 phases=3 Linecode=4c_.1 Length=2.9262 Units=m
New Line.LINE188_110 Bus1=188_104 Bus2=188_111 phases=3 Linecode=4_PC Length=0.059033 Units=m
New Line.LINE188_111 Bus1=188_105 Bus2=188_112 phases=3 Linecode=2c_.0225 Length=0.35371 Units=m
New Line.LINE188_112 Bus1=188_106 Bus2=188_113 phases=3 Linecode=25_SAC_XC Length=0.2726 Units=m
New Line.LINE188_113 Bus1=188_107 Bus2=188_114 phases=3 Linecode=4c_.1 Length=0.1085 Units=m
New Line.LINE188_114 Bus1=188_108 Bus2=188_115 phases=3 Linecode=2c Length=0.087693 Units=m
New Line.LINE188_115 Bus1=188_109 Bus2=188_116 phases=3 Linecode=4_PC Length=0.053033 Units=m
New Line.LINE188_116 Bus1=188_110 Bus2=188_117 phases=3 Linecode=4c_.1 Length=7.2833 Units=m
New Line.LINE188_117 Bus1=188_110 Bus2=188_118 phases=3 Linecode=2c_.04 Length=0.38104 Units=m
New Line.LINE188_118 Bus1=188_112 Bus2=188_119 phases=3 Linecode=2c_.0225 Length=0.209 Units=m
New Line.LINE188_119 Bus1=188_113 Bus2=188_120 phases=3 Linecode=25_SAC_XC Length=0.67363 Units=m
New Line.LINE188_120 Bus1=188_114 Bus2=188_121 phases=3 Linecode=4c_.1 Length=0.19642 Units=m
New Line.LINE188_121 Bus1=188_115 Bus2=188_122 phases=3 Linecode=2c Length=0.11258 Units=m
New Line.LINE188_122 Bus1=188_116 Bus2=188_123 phases=3 Linecode=4_PC Length=0.26834 Units=m
New Line.LINE188_123 Bus1=188_117 Bus2=188_124 phases=3 Linecode=2c Length=18.8119 Units=m
New Line.LINE188_124 Bus1=188_117 Bus2=188_125 phases=3 Linecode=4c_.1 Length=3.8201 Units=m
New Line.LINE188_125 Bus1=188_118 Bus2=188_126 phases=3 Linecode=2c_.04 Length=0.41153 Units=m
New Line.LINE188_126 Bus1=188_119 Bus2=188_127 phases=3 Linecode=2c_.0225 Length=0.18928 Units=m
New Line.LINE188_127 Bus1=188_120 Bus2=188_128 phases=3 Linecode=25_SAC_XC Length=3.8188 Units=m
New Line.LINE188_128 Bus1=188_120 Bus2=188_129 phases=3 Linecode=25_SAC_XC Length=4.8977 Units=m
New Line.LINE188_129 Bus1=188_121 Bus2=188_130 phases=3 Linecode=4c_.1 Length=0.27602 Units=m
New Line.LINE188_130 Bus1=188_122 Bus2=188_131 phases=3 Linecode=2c Length=0.18212 Units=m
New Line.LINE188_131 Bus1=188_123 Bus2=188_132 phases=3 Linecode=4_PC Length=0.088295 Units=m
New Line.LINE188_132 Bus1=188_124 Bus2=188_133 phases=3 Linecode=2c Length=0.94027 Units=m
New Line.LINE188_133 Bus1=188_125 Bus2=188_134 phases=3 Linecode=4c_.1 Length=0.56849 Units=m
New Line.LINE188_134 Bus1=188_126 Bus2=188_135 phases=3 Linecode=2c_.04 Length=0.26675 Units=m
New Line.LINE188_135 Bus1=188_127 Bus2=188_136 phases=3 Linecode=2c_.0225 Length=0.21497 Units=m
New Line.LINE188_136 Bus1=188_128 Bus2=188_137 phases=3 Linecode=25_SAC_XC Length=3.0366 Units=m
New Line.LINE188_137 Bus1=188_130 Bus2=188_138 phases=3 Linecode=4c_.1 Length=1.5484 Units=m
New Line.LINE188_138 Bus1=188_131 Bus2=188_139 phases=3 Linecode=2c Length=0.21246 Units=m
New Line.LINE188_139 Bus1=188_132 Bus2=188_140 phases=3 Linecode=4_PC Length=0.072443 Units=m
New Line.LINE188_140 Bus1=188_133 Bus2=188_141 phases=3 Linecode=2c Length=0.35157 Units=m
New Line.LINE188_141 Bus1=188_134 Bus2=188_142 phases=3 Linecode=4c_.1 Length=0.5683 Units=m
New Line.LINE188_142 Bus1=188_135 Bus2=188_143 phases=3 Linecode=2c_.04 Length=0.65032 Units=m
New Line.LINE188_143 Bus1=188_136 Bus2=188_144 phases=3 Linecode=2c_.0225 Length=0.31354 Units=m
New Line.LINE188_144 Bus1=188_138 Bus2=188_145 phases=3 Linecode=4c_.1 Length=2.9443 Units=m
New Line.LINE188_145 Bus1=188_139 Bus2=188_146 phases=3 Linecode=2c Length=0.23704 Units=m
New Line.LINE188_146 Bus1=188_140 Bus2=188_147 phases=3 Linecode=4_PC Length=0.36581 Units=m
New Line.LINE188_147 Bus1=188_141 Bus2=188_148 phases=3 Linecode=2c Length=0.26611 Units=m
New Line.LINE188_148 Bus1=188_142 Bus2=188_149 phases=3 Linecode=4c_.1 Length=0.621 Units=m
New Line.LINE188_149 Bus1=188_143 Bus2=188_150 phases=3 Linecode=2c_.04 Length=1.167 Units=m
New Line.LINE188_150 Bus1=188_144 Bus2=188_151 phases=3 Linecode=2c_.0225 Length=1.4744 Units=m
New Line.LINE188_151 Bus1=188_145 Bus2=188_152 phases=3 Linecode=4c_.1 Length=3.9153 Units=m
New Line.LINE188_152 Bus1=188_146 Bus2=188_153 phases=3 Linecode=2c Length=0.2783 Units=m
New Line.LINE188_153 Bus1=188_147 Bus2=188_154 phases=3 Linecode=4_PC Length=0.046518 Units=m
New Line.LINE188_154 Bus1=188_148 Bus2=188_155 phases=3 Linecode=2c Length=0.23369 Units=m
New Line.LINE188_155 Bus1=188_149 Bus2=188_156 phases=3 Linecode=4c_.1 Length=0.36661 Units=m
New Line.LINE188_156 Bus1=188_150 Bus2=188_157 phases=3 Linecode=2c_.04 Length=3.9352 Units=m
New Line.LINE188_157 Bus1=188_151 Bus2=188_158 phases=3 Linecode=2c_.0225 Length=2.301 Units=m
New Line.LINE188_158 Bus1=188_152 Bus2=188_159 phases=3 Linecode=4c_.1 Length=0.17614 Units=m
New Line.LINE188_159 Bus1=188_153 Bus2=188_160 phases=3 Linecode=2c Length=13.5877 Units=m
New Line.LINE188_160 Bus1=188_154 Bus2=188_161 phases=3 Linecode=4_PC Length=0.067053 Units=m
New Line.LINE188_161 Bus1=188_155 Bus2=188_162 phases=3 Linecode=2c Length=0.21568 Units=m
New Line.LINE188_162 Bus1=188_156 Bus2=188_163 phases=3 Linecode=4c_.1 Length=0.377 Units=m
New Line.LINE188_163 Bus1=188_157 Bus2=188_164 phases=3 Linecode=2c_.04 Length=4.273 Units=m
New Line.LINE188_164 Bus1=188_159 Bus2=188_165 phases=3 Linecode=4c_.1 Length=0.14417 Units=m
New Line.LINE188_165 Bus1=188_160 Bus2=188_166 phases=3 Linecode=2c Length=0.28762 Units=m
New Line.LINE188_166 Bus1=188_161 Bus2=188_167 phases=3 Linecode=4_PC Length=0.086 Units=m
New Line.LINE188_167 Bus1=188_162 Bus2=188_168 phases=3 Linecode=2c Length=0.23418 Units=m
New Line.LINE188_168 Bus1=188_163 Bus2=188_169 phases=3 Linecode=4c_.1 Length=0.43556 Units=m
New Line.LINE188_169 Bus1=188_164 Bus2=188_170 phases=3 Linecode=2c_.04 Length=1.7241 Units=m
New Line.LINE188_170 Bus1=188_165 Bus2=188_171 phases=3 Linecode=4c_.1 Length=0.13345 Units=m
New Line.LINE188_171 Bus1=188_166 Bus2=188_172 phases=3 Linecode=2c Length=0.3222 Units=m
New Line.LINE188_172 Bus1=188_167 Bus2=188_173 phases=3 Linecode=4_PC Length=0.25005 Units=m
New Line.LINE188_173 Bus1=188_168 Bus2=188_174 phases=3 Linecode=2c Length=0.18 Units=m
New Line.LINE188_174 Bus1=188_169 Bus2=188_175 phases=3 Linecode=4c_.1 Length=0.14389 Units=m
New Line.LINE188_175 Bus1=188_169 Bus2=188_176 phases=3 Linecode=4c_.1 Length=0.49324 Units=m
New Line.LINE188_176 Bus1=188_170 Bus2=188_177 phases=3 Linecode=2c_.04 Length=0.49371 Units=m
New Line.LINE188_177 Bus1=188_171 Bus2=188_178 phases=3 Linecode=4c_.1 Length=0.15842 Units=m
New Line.LINE188_178 Bus1=188_172 Bus2=188_179 phases=3 Linecode=2c Length=0.3137 Units=m
New Line.LINE188_179 Bus1=188_173 Bus2=188_180 phases=3 Linecode=4_PC Length=0.098001 Units=m
New Line.LINE188_180 Bus1=188_174 Bus2=188_181 phases=3 Linecode=2c Length=0.27343 Units=m
New Line.LINE188_181 Bus1=188_175 Bus2=188_182 phases=3 Linecode=4c_.1 Length=0.15305 Units=m
New Line.LINE188_182 Bus1=188_176 Bus2=188_183 phases=3 Linecode=4c_.1 Length=0.38555 Units=m
New Line.LINE188_183 Bus1=188_177 Bus2=188_184 phases=3 Linecode=2c_.04 Length=0.2944 Units=m
New Line.LINE188_184 Bus1=188_178 Bus2=188_185 phases=3 Linecode=4c_.1 Length=0.1714 Units=m
New Line.LINE188_185 Bus1=188_179 Bus2=188_186 phases=3 Linecode=2c Length=0.39382 Units=m
New Line.LINE188_186 Bus1=188_180 Bus2=188_187 phases=3 Linecode=4_PC Length=0.098112 Units=m
New Line.LINE188_187 Bus1=188_181 Bus2=188_188 phases=3 Linecode=2c Length=0.30747 Units=m
New Line.LINE188_188 Bus1=188_182 Bus2=188_189 phases=3 Linecode=4c_.1 Length=0.15219 Units=m
New Line.LINE188_189 Bus1=188_183 Bus2=188_190 phases=3 Linecode=4c_.1 Length=0.39347 Units=m
New Line.LINE188_190 Bus1=188_184 Bus2=188_191 phases=3 Linecode=2c_.04 Length=0.30173 Units=m
New Line.LINE188_191 Bus1=188_185 Bus2=188_192 phases=3 Linecode=4c_.1 Length=0.21833 Units=m
New Line.LINE188_192 Bus1=188_186 Bus2=188_193 phases=3 Linecode=2c Length=1.11 Units=m
New Line.LINE188_193 Bus1=188_187 Bus2=188_194 phases=3 Linecode=4_PC Length=0.15449 Units=m
New Line.LINE188_194 Bus1=188_188 Bus2=188_195 phases=3 Linecode=2c Length=0.26382 Units=m
New Line.LINE188_195 Bus1=188_189 Bus2=188_196 phases=3 Linecode=4c_.1 Length=0.15455 Units=m
New Line.LINE188_196 Bus1=188_190 Bus2=188_197 phases=3 Linecode=4c_.1 Length=0.34835 Units=m
New Line.LINE188_197 Bus1=188_191 Bus2=188_198 phases=3 Linecode=2c_.04 Length=0.44635 Units=m
New Line.LINE188_198 Bus1=188_192 Bus2=188_199 phases=3 Linecode=4c_.1 Length=0.1764 Units=m
New Line.LINE188_199 Bus1=188_193 Bus2=188_200 phases=3 Linecode=2c Length=0.33099 Units=m
New Line.LINE188_200 Bus1=188_193 Bus2=188_201 phases=3 Linecode=2c Length=2.7591 Units=m
New Line.LINE188_201 Bus1=188_195 Bus2=188_202 phases=3 Linecode=2c Length=0.7323 Units=m
New Line.LINE188_202 Bus1=188_196 Bus2=188_203 phases=3 Linecode=4c_.1 Length=0.27445 Units=m
New Line.LINE188_203 Bus1=188_197 Bus2=188_204 phases=3 Linecode=4c_.1 Length=0.36831 Units=m
New Line.LINE188_204 Bus1=188_198 Bus2=188_205 phases=3 Linecode=2c_.04 Length=5.9435 Units=m
New Line.LINE188_205 Bus1=188_199 Bus2=188_206 phases=3 Linecode=4c_.1 Length=0.36507 Units=m
New Line.LINE188_206 Bus1=188_200 Bus2=188_207 phases=3 Linecode=2c Length=0.39903 Units=m
New Line.LINE188_207 Bus1=188_202 Bus2=188_208 phases=3 Linecode=2c Length=4.4115 Units=m
New Line.LINE188_208 Bus1=188_202 Bus2=188_209 phases=3 Linecode=2c Length=5.2729 Units=m
New Line.LINE188_209 Bus1=188_203 Bus2=188_210 phases=3 Linecode=4c_.1 Length=0.30901 Units=m
New Line.LINE188_210 Bus1=188_204 Bus2=188_211 phases=3 Linecode=4c_.1 Length=0.35241 Units=m
New Line.LINE188_211 Bus1=188_205 Bus2=188_212 phases=3 Linecode=2c_.04 Length=6.8159 Units=m
New Line.LINE188_212 Bus1=188_206 Bus2=188_213 phases=3 Linecode=4c_.1 Length=3.9036 Units=m
New Line.LINE188_213 Bus1=188_207 Bus2=188_214 phases=3 Linecode=2c Length=0.28703 Units=m
New Line.LINE188_214 Bus1=188_208 Bus2=188_215 phases=3 Linecode=2c Length=0.70537 Units=m
New Line.LINE188_215 Bus1=188_211 Bus2=188_216 phases=3 Linecode=4c_.1 Length=0.48339 Units=m
New Line.LINE188_216 Bus1=188_212 Bus2=188_217 phases=3 Linecode=2c_.04 Length=0.31119 Units=m
New Line.LINE188_217 Bus1=188_213 Bus2=188_218 phases=3 Linecode=4c_.1 Length=1.4252 Units=m
New Line.LINE188_218 Bus1=188_214 Bus2=188_219 phases=3 Linecode=2c Length=0.31845 Units=m
New Line.LINE188_219 Bus1=188_215 Bus2=188_220 phases=3 Linecode=2c Length=0.7108 Units=m
New Line.LINE188_220 Bus1=188_216 Bus2=188_221 phases=3 Linecode=4c_.1 Length=0.80921 Units=m
New Line.LINE188_221 Bus1=188_217 Bus2=188_222 phases=3 Linecode=2c_.04 Length=0.26515 Units=m
New Line.LINE188_222 Bus1=188_218 Bus2=188_223 phases=3 Linecode=4c_.1 Length=13.6885 Units=m
New Line.LINE188_223 Bus1=188_219 Bus2=188_224 phases=3 Linecode=2c Length=0.44869 Units=m
New Line.LINE188_224 Bus1=188_220 Bus2=188_225 phases=3 Linecode=2c Length=1.1367 Units=m
New Line.LINE188_225 Bus1=188_221 Bus2=188_226 phases=3 Linecode=4c_.1 Length=7.3662 Units=m
New Line.LINE188_226 Bus1=188_222 Bus2=188_227 phases=3 Linecode=2c_.04 Length=0.32015 Units=m
New Line.LINE188_227 Bus1=188_224 Bus2=188_228 phases=3 Linecode=2c Length=0.34039 Units=m
New Line.LINE188_228 Bus1=188_225 Bus2=188_229 phases=3 Linecode=2c Length=3.4401 Units=m
New Line.LINE188_229 Bus1=188_226 Bus2=188_230 phases=3 Linecode=4_PC Length=0.78836 Units=m
New Line.LINE188_230 Bus1=188_226 Bus2=188_231 phases=3 Linecode=4c_.1 Length=1.4347 Units=m
New Line.LINE188_231 Bus1=188_227 Bus2=188_232 phases=3 Linecode=2c_.04 Length=0.29951 Units=m
New Line.LINE188_232 Bus1=188_228 Bus2=188_233 phases=3 Linecode=2c Length=0.339 Units=m
New Line.LINE188_233 Bus1=188_230 Bus2=188_234 phases=3 Linecode=4_PC Length=0.36652 Units=m
New Line.LINE188_234 Bus1=188_231 Bus2=188_235 phases=3 Linecode=2c Length=16.5181 Units=m
New Line.LINE188_235 Bus1=188_231 Bus2=188_236 phases=3 Linecode=4c_.1 Length=5.6 Units=m
New Line.LINE188_236 Bus1=188_232 Bus2=188_237 phases=3 Linecode=2c_.04 Length=0.22436 Units=m
New Line.LINE188_237 Bus1=188_233 Bus2=188_238 phases=3 Linecode=2c Length=0.387 Units=m
New Line.LINE188_238 Bus1=188_234 Bus2=188_239 phases=3 Linecode=4_PC Length=0.10423 Units=m
New Line.LINE188_239 Bus1=188_235 Bus2=188_240 phases=3 Linecode=2c Length=0.31183 Units=m
New Line.LINE188_240 Bus1=188_235 Bus2=188_241 phases=3 Linecode=2c Length=3.9111 Units=m
New Line.LINE188_241 Bus1=188_236 Bus2=188_242 phases=3 Linecode=4c_.1 Length=10.233 Units=m
New Line.LINE188_242 Bus1=188_237 Bus2=188_243 phases=3 Linecode=2c_.04 Length=1.5124 Units=m
New Line.LINE188_243 Bus1=188_238 Bus2=188_244 phases=3 Linecode=2c Length=0.6186 Units=m
New Line.LINE188_244 Bus1=188_239 Bus2=188_245 phases=3 Linecode=4_PC Length=0.077648 Units=m
New Line.LINE188_245 Bus1=188_240 Bus2=188_246 phases=3 Linecode=2c Length=0.13462 Units=m
New Line.LINE188_246 Bus1=188_242 Bus2=188_247 phases=3 Linecode=4c_.1 Length=1.1233 Units=m
New Line.LINE188_247 Bus1=188_243 Bus2=188_248 phases=3 Linecode=2c_.04 Length=4.6577 Units=m
New Line.LINE188_248 Bus1=188_243 Bus2=188_249 phases=3 Linecode=2c_.04 Length=3.5973 Units=m
New Line.LINE188_249 Bus1=188_244 Bus2=188_250 phases=3 Linecode=2c Length=10.8475 Units=m
New Line.LINE188_250 Bus1=188_245 Bus2=188_251 phases=3 Linecode=4_PC Length=0.12143 Units=m
New Line.LINE188_251 Bus1=188_246 Bus2=188_252 phases=3 Linecode=2c Length=0.15741 Units=m
New Line.LINE188_252 Bus1=188_247 Bus2=188_253 phases=3 Linecode=2c_.04 Length=6.8246 Units=m
New Line.LINE188_253 Bus1=188_247 Bus2=188_254 phases=3 Linecode=4c_.1 Length=1.6801 Units=m
New Line.LINE188_254 Bus1=188_248 Bus2=188_255 phases=3 Linecode=2c_.04 Length=1.6988 Units=m
New Line.LINE188_255 Bus1=188_250 Bus2=188_256 phases=3 Linecode=2c Length=0.62454 Units=m
New Line.LINE188_256 Bus1=188_251 Bus2=188_257 phases=3 Linecode=4_PC Length=0.50936 Units=m
New Line.LINE188_257 Bus1=188_252 Bus2=188_258 phases=3 Linecode=2c Length=0.11887 Units=m
New Line.LINE188_258 Bus1=188_253 Bus2=188_259 phases=3 Linecode=2c_.04 Length=8.4291 Units=m
New Line.LINE188_259 Bus1=188_254 Bus2=188_260 phases=3 Linecode=4c_.1 Length=9.8091 Units=m
New Line.LINE188_260 Bus1=188_256 Bus2=188_261 phases=3 Linecode=2c Length=0.556 Units=m
New Line.LINE188_261 Bus1=188_258 Bus2=188_262 phases=3 Linecode=2c Length=0.11538 Units=m
New Line.LINE188_262 Bus1=188_259 Bus2=188_263 phases=3 Linecode=2c_.04 Length=0.29594 Units=m
New Line.LINE188_263 Bus1=188_260 Bus2=188_264 phases=3 Linecode=4c_.1 Length=5.4117 Units=m
New Line.LINE188_264 Bus1=188_261 Bus2=188_265 phases=3 Linecode=2c Length=0.968 Units=m
New Line.LINE188_265 Bus1=188_262 Bus2=188_266 phases=3 Linecode=2c Length=0.436 Units=m
New Line.LINE188_266 Bus1=188_263 Bus2=188_267 phases=3 Linecode=2c_.04 Length=0.34531 Units=m
New Line.LINE188_267 Bus1=188_264 Bus2=188_268 phases=3 Linecode=4c_.1 Length=3.2655 Units=m
New Line.LINE188_268 Bus1=188_265 Bus2=188_269 phases=3 Linecode=2c Length=0.51834 Units=m
New Line.LINE188_269 Bus1=188_266 Bus2=188_270 phases=3 Linecode=2c Length=0.19235 Units=m
New Line.LINE188_270 Bus1=188_267 Bus2=188_271 phases=3 Linecode=2c_.04 Length=0.26409 Units=m
New Line.LINE188_271 Bus1=188_268 Bus2=188_272 phases=3 Linecode=4c_.1 Length=2.8796 Units=m
New Line.LINE188_272 Bus1=188_269 Bus2=188_273 phases=3 Linecode=2c Length=0.54207 Units=m
New Line.LINE188_273 Bus1=188_270 Bus2=188_274 phases=3 Linecode=2c Length=0.18423 Units=m
New Line.LINE188_274 Bus1=188_271 Bus2=188_275 phases=3 Linecode=2c_.04 Length=0.38812 Units=m
New Line.LINE188_275 Bus1=188_272 Bus2=188_276 phases=3 Linecode=2c_.04 Length=14.2091 Units=m
New Line.LINE188_276 Bus1=188_272 Bus2=188_277 phases=3 Linecode=4c_.1 Length=0.8391 Units=m
New Line.LINE188_277 Bus1=188_273 Bus2=188_278 phases=3 Linecode=2c Length=0.73196 Units=m
New Line.LINE188_278 Bus1=188_274 Bus2=188_279 phases=3 Linecode=2c Length=2.1114 Units=m
New Line.LINE188_279 Bus1=188_275 Bus2=188_280 phases=3 Linecode=2c_.04 Length=0.21011 Units=m
New Line.LINE188_280 Bus1=188_276 Bus2=188_281 phases=3 Linecode=2c_.04 Length=0.56413 Units=m
New Line.LINE188_281 Bus1=188_277 Bus2=188_282 phases=3 Linecode=4c_.1 Length=5.5884 Units=m
New Line.LINE188_282 Bus1=188_278 Bus2=188_283 phases=3 Linecode=2c Length=2.6117 Units=m
New Line.LINE188_283 Bus1=188_279 Bus2=188_284 phases=3 Linecode=2c Length=0.12017 Units=m
New Line.LINE188_284 Bus1=188_280 Bus2=188_285 phases=3 Linecode=2c_.04 Length=0.22811 Units=m
New Line.LINE188_285 Bus1=188_281 Bus2=188_286 phases=3 Linecode=2c_.04 Length=0.3581 Units=m
New Line.LINE188_286 Bus1=188_282 Bus2=188_287 phases=3 Linecode=4c_.1 Length=1.782 Units=m
New Line.LINE188_287 Bus1=188_284 Bus2=188_288 phases=3 Linecode=2c Length=0.147 Units=m
New Line.LINE188_288 Bus1=188_285 Bus2=188_289 phases=3 Linecode=2c_.04 Length=0.25367 Units=m
New Line.LINE188_289 Bus1=188_286 Bus2=188_290 phases=3 Linecode=2c_.04 Length=0.28557 Units=m
New Line.LINE188_290 Bus1=188_287 Bus2=188_291 phases=3 Linecode=4c_.1 Length=7.7086 Units=m
New Line.LINE188_291 Bus1=188_288 Bus2=188_292 phases=3 Linecode=2c Length=1.7818 Units=m
New Line.LINE188_292 Bus1=188_289 Bus2=188_293 phases=3 Linecode=2c_.04 Length=0.29544 Units=m
New Line.LINE188_293 Bus1=188_290 Bus2=188_294 phases=3 Linecode=2c_.04 Length=0.32504 Units=m
New Line.LINE188_294 Bus1=188_291 Bus2=188_295 phases=3 Linecode=25_SAC_XC Length=2.4104 Units=m
New Line.LINE188_295 Bus1=188_291 Bus2=188_296 phases=3 Linecode=4c_.1 Length=5.473 Units=m
New Line.LINE188_296 Bus1=188_292 Bus2=188_297 phases=3 Linecode=2c Length=0.11486 Units=m
New Line.LINE188_297 Bus1=188_293 Bus2=188_298 phases=3 Linecode=2c_.04 Length=0.91071 Units=m
New Line.LINE188_298 Bus1=188_294 Bus2=188_299 phases=3 Linecode=2c_.04 Length=0.31927 Units=m
New Line.LINE188_299 Bus1=188_295 Bus2=188_300 phases=3 Linecode=25_SAC_XC Length=1.1154 Units=m
New Line.LINE188_300 Bus1=188_296 Bus2=188_301 phases=3 Linecode=4_PC Length=0.19865 Units=m
New Line.LINE188_301 Bus1=188_296 Bus2=188_302 phases=3 Linecode=4c_.1 Length=0.28313 Units=m
New Line.LINE188_302 Bus1=188_297 Bus2=188_303 phases=3 Linecode=2c Length=0.11739 Units=m
New Line.LINE188_303 Bus1=188_298 Bus2=188_304 phases=3 Linecode=2c_.04 Length=10.1581 Units=m
New Line.LINE188_304 Bus1=188_298 Bus2=188_305 phases=3 Linecode=2c_.04 Length=2.282 Units=m
New Line.LINE188_305 Bus1=188_299 Bus2=188_306 phases=3 Linecode=2c_.04 Length=0.22895 Units=m
New Line.LINE188_306 Bus1=188_300 Bus2=188_307 phases=3 Linecode=25_SAC_XC Length=1.3649 Units=m
New Line.LINE188_307 Bus1=188_301 Bus2=188_308 phases=3 Linecode=4_PC Length=0.12907 Units=m
New Line.LINE188_308 Bus1=188_302 Bus2=188_309 phases=3 Linecode=25_SAC_XC Length=2.3824 Units=m
New Line.LINE188_309 Bus1=188_302 Bus2=188_310 phases=3 Linecode=4c_.1 Length=4.705 Units=m
New Line.LINE188_310 Bus1=188_303 Bus2=188_311 phases=3 Linecode=2c Length=0.51803 Units=m
New Line.LINE188_311 Bus1=188_304 Bus2=188_312 phases=3 Linecode=2c_.04 Length=3.2777 Units=m
New Line.LINE188_312 Bus1=188_306 Bus2=188_313 phases=3 Linecode=2c_.04 Length=0.17275 Units=m
New Line.LINE188_313 Bus1=188_307 Bus2=188_314 phases=3 Linecode=25_SAC_XC Length=6.9733 Units=m
New Line.LINE188_314 Bus1=188_308 Bus2=188_315 phases=3 Linecode=4_PC Length=0.15642 Units=m
New Line.LINE188_315 Bus1=188_309 Bus2=188_316 phases=3 Linecode=25_SAC_XC Length=0.052839 Units=m
New Line.LINE188_316 Bus1=188_310 Bus2=188_317 phases=3 Linecode=4c_.1 Length=6.0089 Units=m
New Line.LINE188_317 Bus1=188_311 Bus2=188_318 phases=3 Linecode=2c Length=2.4594 Units=m
New Line.LINE188_318 Bus1=188_313 Bus2=188_319 phases=3 Linecode=2c_.04 Length=0.86955 Units=m
New Line.LINE188_319 Bus1=188_314 Bus2=188_320 phases=3 Linecode=25_SAC_XC Length=3.8461 Units=m
New Line.LINE188_320 Bus1=188_315 Bus2=188_321 phases=3 Linecode=4_PC Length=0.14017 Units=m
New Line.LINE188_321 Bus1=188_316 Bus2=188_322 phases=3 Linecode=25_SAC_XC Length=2.905 Units=m
New Line.LINE188_322 Bus1=188_317 Bus2=188_323 phases=3 Linecode=25_SAC_XC Length=1.1325 Units=m
New Line.LINE188_323 Bus1=188_317 Bus2=188_324 phases=3 Linecode=4c_.1 Length=5.0845 Units=m