New Line.LINE188_41 Bus1=188_41 Bus2=188_42 phases=3 Linecode=3c_25_SAC_XC Length=1.2797 Units=m
New Line.LINE188_42 Bus1=188_41 Bus2=188_43 phases=3 Linecode=4c_.2 Length=9.3467 Units=m
New Line.LINE188_43 Bus1=188_42 Bus2=188_44 phases=3 Linecode=3c_25_SAC_XC Length=0.83093 Units=m
New Line.LINE188_45 Bus1=188_43 Bus2=188_46 phases=3 Linecode=4c_.2 Length=2.5824 Units=m
New Line.LINE188_46 Bus1=188_44 Bus2=188_47 phases=3 Linecode=3c_25_SAC_XC Length=1.1061 Units=m
New Line.LINE188_48 Bus1=188_46 Bus2=188_49 phases=3 Linecode=4c_.2 Length=13.0237 Units=m
New Line.LINE188_49 Bus1=188_47 Bus2=188_50 phases=3 Linecode=3c_25_SAC_XC Length=1.0336 Units=m
New Line.LINE188_51 Bus1=188_49 Bus2=188_52 phases=3 Linecode=4c_.1 Length=0.81214 Units=m
New Line.LINE188_52 Bus1=188_50 Bus2=188_53 phases=3 Linecode=3c_25_SAC_XC Length=2.2896 Units=m
New Line.LINE188_55 Bus1=188_52 Bus2=188_56 phases=3 Linecode=4c_.1 Length=3.2015 Units=m
New Line.LINE188_56 Bus1=188_53 Bus2=188_57 phases=3 Linecode=3c_25_SAC_XC Length=1.3029 Units=m
New Line.LINE188_60 Bus1=188_56 Bus2=188_61 phases=3 Linecode=4c_.1 Length=5.9214 Units=m
New Line.LINE188_61 Bus1=188_57 Bus2=188_62 phases=3 Linecode=3c_25_SAC_XC Length=1.5132 Units=m
New Line.LINE188_65 Bus1=188_61 Bus2=188_66 phases=3 Linecode=4c_.1 Length=1.4943 Units=m
New Line.LINE188_66 Bus1=188_62 Bus2=188_67 phases=3 Linecode=3c_25_SAC_XC Length=24.7958 Units=m
New Line.LINE188_70 Bus1=188_66 Bus2=188_71 phases=3 Linecode=4c_.1 Length=5.3548 Units=m
New Line.LINE188_72 Bus1=188_67 Bus2=188_73 phases=3 Linecode=3c_25_SAC_XC Length=24.7471 Units=m
New Line.LINE188_76 Bus1=188_71 Bus2=188_77 phases=3 Linecode=4c_120_SAC Length=3.1125 Units=m
New Line.LINE188_78 Bus1=188_73 Bus2=188_79 phases=3 Linecode=25_SAC_XC Length=6.7319 Units=m
New Line.LINE188_84 Bus1=188_77 Bus2=188_85 phases=3 Linecode=4c_120_SAC Length=0.055868 Units=m
New Line.LINE188_90 Bus1=188_85 Bus2=188_91 phases=3 Linecode=4c_120_SAC Length=10.2641 Units=m
New Line.LINE188_96 Bus1=188_91 Bus2=188_97 phases=3 Linecode=4c_.1 Length=10.3777 Units=m
New Line.LINE188_102 Bus1=188_97 Bus2=188_103 phases=3 Linecode=4c_.1 Length=7.2339 Units=m
New Line.LINE188_109 Bus1=188_103 Bus2=188_110 phases=3 Linecode=4c_.1 Length=2.9262 Units=m
New Line.LINE188_116 Bus1=188_110 Bus2=188_117 phases=3 Linecode=4c_.1 Length=7.2833 Units=m
New Line.LINE188_128 Bus1=188_120 Bus2=188_129 phases=3 Linecode=25_SAC_XC Length=4.8977 Units=m
New Line.LINE188_200 Bus1=188_193 Bus2=188_201 phases=3 Linecode=2c Length=2.7591 Units=m
New Line.LINE188_208 Bus1=188_202 Bus2=188_209 phases=3 Linecode=2c Length=5.2729 Units=m
New Line.LINE188_234 Bus1=188_231 Bus2=188_235 phases=3 Linecode=2c Length=16.5181 Units=m
New Line.LINE188_240 Bus1=188_235 Bus2=188_241 phases=3 Linecode=2c Length=3.9111 Units=m
New Line.LINE188_248 Bus1=188_243 Bus2=188_249 phases=3 Linecode=2c_.04 Length=3.5973 Units=m
New Line.LINE188_304 Bus1=188_298 Bus2=188_305 phases=3 Linecode=2c_.04 Length=2.282 Units=m
New Line.LINE188_325 Bus1=188_319 Bus2=188_326 phases=3 Linecode=2c_.04 Length=2.365 Units=m
New Line.LINE188_335 Bus1=188_330 Bus2=188_336 phases=3 Linecode=4c_.1 Length=0.57802 Units=m
New Line.LINE188_338 Bus1=188_336 Bus2=188_339 phases=3 Linecode=4c_.1 Length=4.5242 Units=m
New Line.LINE188_341 Bus1=188_339 Bus2=188_342 phases=3 Linecode=25_SAC_XC Length=11.7267 Units=m
New Line.LINE188_344 Bus1=188_342 Bus2=188_345 phases=3 Linecode=25_SAC_XC Length=4.3075 Units=m
New Line.LINE188_Cmpd_0 Bus1=188_43 Bus2=188_158 phases=3 Linecode=2c_.0225 Length=24.51205 Units=m
New Line.LINE188_Cmpd_1 Bus1=188_1 Bus2=188_41 phases=3 Linecode=4c_.2 Length=41.379813 Units=m
New Line.LINE188_Cmpd_2 Bus1=188_77 Bus2=188_193 phases=3 Linecode=2c Length=17.693383 Units=m
New Line.LINE188_Cmpd_3 Bus1=188_235 Bus2=188_318 phases=3 Linecode=2c Length=9.02074 Units=m
New Line.LINE188_Cmpd_4 Bus1=188_52 Bus2=188_120 phases=3 Linecode=25_SAC_XC Length=19.73245 Units=m
New Line.LINE188_Cmpd_5 Bus1=188_117 Bus2=188_231 phases=3 Linecode=4c_.1 Length=19.19189 Units=m
New Line.LINE188_Cmpd_6 Bus1=188_272 Bus2=188_319 phases=3 Linecode=2c_.04 Length=17.33246 Units=m
New Line.LINE188_Cmpd_7 Bus1=188_243 Bus2=188_255 phases=3 Linecode=2c_.04 Length=6.3565 Units=m
New Line.LINE188_Cmpd_8 Bus1=188_330 Bus2=188_347 phases=3 Linecode=25_SAC_XC Length=15.58671 Units=m
New Line.LINE188_Cmpd_9 Bus1=188_193 Bus2=188_283 phases=3 Linecode=2c Length=20.86929 Units=m
New Line.LINE188_Cmpd_10 Bus1=188_110 Bus2=188_243 phases=3 Linecode=2c_.04 Length=30.03729 Units=m
New Line.LINE188_Cmpd_11 Bus1=188_247 Bus2=188_272 phases=3 Linecode=4c_.1 Length=23.046 Units=m
New Line.LINE188_Cmpd_12 Bus1=188_302 Bus2=188_333 phases=3 Linecode=25_SAC_XC Length=16.928539 Units=m
New Line.LINE188_Cmpd_13 Bus1=188_117 Bus2=188_202 phases=3 Linecode=2c Length=22.81042 Units=m
New Line.LINE188_Cmpd_14 Bus1=188_231 Bus2=188_247 phases=3 Linecode=4c_.1 Length=16.9563 Units=m
New Line.LINE188_Cmpd_15 Bus1=188_202 Bus2=188_229 phases=3 Linecode=2c Length=10.40447 Units=m
New Line.LINE188_Cmpd_16 Bus1=188_247 Bus2=188_298 phases=3 Linecode=2c_.04 Length=18.4452 Units=m
New Line.LINE188_Cmpd_17 Bus1=188_319 Bus2=188_331 phases=3 Linecode=2c_.04 Length=11.9375 Units=m
New Line.LINE188_Cmpd_18 Bus1=188_291 Bus2=188_320 phases=3 Linecode=25_SAC_XC Length=15.7101 Units=m
New Line.LINE188_Cmpd_19 Bus1=188_272 Bus2=188_291 phases=3 Linecode=4c_.1 Length=15.9181 Units=m
New Line.LINE188_Cmpd_20 Bus1=188_298 Bus2=188_312 phases=3 Linecode=2c_.04 Length=13.4358 Units=m
New Line.LINE188_Cmpd_21 Bus1=188_317 Bus2=188_340 phases=3 Linecode=25_SAC_XC Length=16.3243 Units=m
New Line.LINE188_Cmpd_22 Bus1=188_291 Bus2=188_302 phases=3 Linecode=4c_.1 Length=5.75613 Units=m
New Line.LINE188_Cmpd_23 Bus1=188_302 Bus2=188_317 phases=3 Linecode=4c_.1 Length=10.7139 Units=m
New Line.LINE188_Cmpd_24 Bus1=188_317 Bus2=188_330 phases=3 Linecode=4c_.1 Length=11.5599 Units=m
New Line.LINE188_Cmpd_25 Bus1=188_120 Bus2=188_137 phases=3 Linecode=25_SAC_XC Length=6.8554 Units=m
