New Load.LOAD188_1 Phases=1 Bus1=188_79.1 kV=0.23 kW=1 PF=0.95
New Load.LOAD188_2 Phases=1 Bus1=188_129.2 kV=0.23 kW=1 PF=0.95
New Load.LOAD188_3 Phases=1 Bus1=188_137.2 kV=0.23 kW=1 PF=0.95
New Load.LOAD188_4 Phases=1 Bus1=188_158.1 kV=0.23 kW=1 PF=0.95
New Load.LOAD188_5 Phases=1 Bus1=188_201.3 kV=0.23 kW=1 PF=0.95
New Load.LOAD188_6 Phases=1 Bus1=188_209.2 kV=0.23 kW=1 PF=0.95
New Load.LOAD188_7 Phases=1 Bus1=188_229.2 kV=0.23 kW=1 PF=0.95
New Load.LOAD188_8 Phases=1 Bus1=188_241.3 kV=0.23 kW=1 PF=0.95
New Load.LOAD188_9 Phases=1 Bus1=188_249.1 kV=0.23 kW=1 PF=0.95
New Load.LOAD188_10 Phases=1 Bus1=188_255.1 kV=0.23 kW=1 PF=0.95
New Load.LOAD188_11 Phases=1 Bus1=188_283.3 kV=0.23 kW=1 PF=0.95
New Load.LOAD188_12 Phases=1 Bus1=188_305.2 kV=0.23 kW=1 PF=0.95
New Load.LOAD188_13 Phases=1 Bus1=188_312.2 kV=0.23 kW=1 PF=0.95
New Load.LOAD188_14 Phases=1 Bus1=188_318.3 kV=0.23 kW=1 PF=0.95
New Load.LOAD188_15 Phases=1 Bus1=188_320.2 kV=0.23 kW=1 PF=0.95
New Load.LOAD188_16 Phases=1 Bus1=188_326.2 kV=0.23 kW=1 PF=0.95
New Load.LOAD188_17 Phases=1 Bus1=188_331.2 kV=0.23 kW=1 PF=0.95
New Load.LOAD188_18 Phases=1 Bus1=188_333.3 kV=0.23 kW=1 PF=0.95
New Load.LOAD188_19 Phases=1 Bus1=188_340.1 kV=0.23 kW=1 PF=0.95
New Load.LOAD188_20 Phases=1 Bus1=188_345.2 kV=0.23 kW=1 PF=0.95
New Load.LOAD188_21 Phases=1 Bus1=188_347.3 kV=0.23 kW=1 PF=0.95
