New Line.LINE114 Bus1=109 Bus2=115 phases=3 Linecode=25_SAC_XC Length=18.6333 Units=m
New Line.LINE169 Bus1=165 Bus2=170 phases=3 Linecode=4c_.06 Length=2.1281 Units=m
New Line.LINE189 Bus1=183 Bus2=190 phases=3 Linecode=4c_.06 Length=4.0245 Units=m
New Line.LINE209 Bus1=201 Bus2=210 phases=3 Linecode=4c_.06 Length=12.6298 Units=m
New Line.LINE221 Bus1=211 Bus2=222 phases=3 Linecode=2c_.0225 Length=5.1057 Units=m
New Line.LINE222 Bus1=211 Bus2=223 phases=3 Linecode=2c_.0225 Length=5.1057 Units=m
New Line.LINE250 Bus1=241 Bus2=251 phases=3 Linecode=2c_.0225 Length=6.7186 Units=m
New Line.LINE273 Bus1=263 Bus2=274 phases=3 Linecode=4c_.06 Length=7.6317 Units=m
New Line.LINE277 Bus1=267 Bus2=278 phases=3 Linecode=2c_.0225 Length=4.4991 Units=m
New Line.LINE278 Bus1=267 Bus2=279 phases=3 Linecode=2c_.0225 Length=4.4991 Units=m
New Line.LINE318 Bus1=311 Bus2=319 phases=3 Linecode=2c_.04 Length=7.9319 Units=m
New Line.LINE325 Bus1=319 Bus2=326 phases=3 Linecode=2c_.04 Length=5.3493 Units=m
New Line.LINE326 Bus1=319 Bus2=327 phases=3 Linecode=2c_.04 Length=5.3493 Units=m
New Line.LINE350 Bus1=344 Bus2=351 phases=3 Linecode=4c_.06 Length=13.1234 Units=m
New Line.LINE360 Bus1=354 Bus2=361 phases=3 Linecode=2c_.0225 Length=1.0967 Units=m
New Line.LINE361 Bus1=354 Bus2=362 phases=3 Linecode=2c_.0225 Length=1.0967 Units=m
New Line.LINE405 Bus1=403 Bus2=406 phases=3 Linecode=2c_.0225 Length=5.2004 Units=m
New Line.LINE425 Bus1=421 Bus2=426 phases=3 Linecode=2c_.0225 Length=5.2133 Units=m
New Line.LINE454 Bus1=452 Bus2=455 phases=3 Linecode=2c_.0225 Length=5.158 Units=m
New Line.LINE455 Bus1=452 Bus2=456 phases=3 Linecode=2c_.0225 Length=5.158 Units=m
New Line.LINE471 Bus1=471 Bus2=472 phases=3 Linecode=4c_.06 Length=2.6474 Units=m
New Line.LINECmpd_0 Bus1=170 Bus2=181 phases=3 Linecode=2c_.0225 Length=14.7847 Units=m
New Line.LINECmpd_1 Bus1=366 Bus2=452 phases=3 Linecode=2c_.0225 Length=10.305898 Units=m
New Line.LINECmpd_2 Bus1=100 Bus2=199 phases=3 Linecode=4c_.06 Length=12.785968 Units=m
New Line.LINECmpd_3 Bus1=457 Bus2=469 phases=3 Linecode=2c_.0225 Length=11.26687 Units=m
New Line.LINECmpd_4 Bus1=65 Bus2=100 phases=3 Linecode=4c_.1 Length=42.60539 Units=m
New Line.LINECmpd_5 Bus1=251 Bus2=271 phases=3 Linecode=2c_.0225 Length=5.9651 Units=m
New Line.LINECmpd_6 Bus1=1 Bus2=65 phases=3 Linecode=4c_70 Length=76.306289 Units=m
New Line.LINECmpd_7 Bus1=190 Bus2=344 phases=3 Linecode=4c_.06 Length=28.22103 Units=m
New Line.LINECmpd_8 Bus1=234 Bus2=354 phases=3 Linecode=2c_.0225 Length=10.7246 Units=m
New Line.LINECmpd_9 Bus1=217 Bus2=240 phases=3 Linecode=2c_.0225 Length=13.0289 Units=m
New Line.LINECmpd_10 Bus1=190 Bus2=267 phases=3 Linecode=2c_.0225 Length=10.1129 Units=m
New Line.LINECmpd_11 Bus1=421 Bus2=457 phases=3 Linecode=4c_.06 Length=16.0484 Units=m
New Line.LINECmpd_12 Bus1=199 Bus2=332 phases=3 Linecode=2c_.0225 Length=18.12726 Units=m
New Line.LINECmpd_13 Bus1=65 Bus2=109 phases=3 Linecode=4c_300_SAC Length=23.33975 Units=m
New Line.LINECmpd_14 Bus1=274 Bus2=345 phases=3 Linecode=2c_.0225 Length=14.19401 Units=m
New Line.LINECmpd_15 Bus1=263 Bus2=284 phases=3 Linecode=2c_.0225 Length=13.2476 Units=m
New Line.LINECmpd_16 Bus1=100 Bus2=143 phases=3 Linecode=4c_.1 Length=18.14295 Units=m
New Line.LINECmpd_17 Bus1=457 Bus2=471 phases=3 Linecode=4c_.06 Length=12.646 Units=m
New Line.LINECmpd_18 Bus1=143 Bus2=201 phases=3 Linecode=4c_.06 Length=18.50579 Units=m
New Line.LINECmpd_19 Bus1=311 Bus2=388 phases=3 Linecode=4c_.06 Length=18.40222 Units=m
New Line.LINECmpd_20 Bus1=406 Bus2=443 phases=3 Linecode=2c_.0225 Length=7.05925 Units=m
New Line.LINECmpd_21 Bus1=165 Bus2=211 phases=3 Linecode=2c_.0225 Length=10.89 Units=m
New Line.LINECmpd_22 Bus1=388 Bus2=403 phases=3 Linecode=4c_.06 Length=12.2146 Units=m
New Line.LINECmpd_23 Bus1=274 Bus2=311 phases=3 Linecode=4c_.06 Length=15.5397 Units=m
New Line.LINECmpd_24 Bus1=199 Bus2=217 phases=3 Linecode=4c_.06 Length=3.4967 Units=m
New Line.LINECmpd_25 Bus1=143 Bus2=165 phases=3 Linecode=4c_.06 Length=11.99209 Units=m
New Line.LINECmpd_26 Bus1=251 Bus2=317 phases=3 Linecode=2c_.0225 Length=7.66833 Units=m
New Line.LINECmpd_27 Bus1=426 Bus2=461 phases=3 Linecode=2c_.0225 Length=7.355172 Units=m
New Line.LINECmpd_28 Bus1=388 Bus2=399 phases=3 Linecode=2c_.0225 Length=10.1249 Units=m
New Line.LINECmpd_29 Bus1=183 Bus2=196 phases=3 Linecode=2c_.0225 Length=12.5884 Units=m
New Line.LINECmpd_30 Bus1=403 Bus2=421 phases=3 Linecode=4c_.06 Length=14.6645 Units=m
New Line.LINECmpd_31 Bus1=217 Bus2=241 phases=3 Linecode=4c_.06 Length=13.9863 Units=m
New Line.LINECmpd_32 Bus1=471 Bus2=477 phases=3 Linecode=2c_.0225 Length=11.8922 Units=m
New Line.LINECmpd_33 Bus1=406 Bus2=415 phases=3 Linecode=2c_.0225 Length=6.48941 Units=m
New Line.LINECmpd_34 Bus1=351 Bus2=366 phases=3 Linecode=4c_.06 Length=5.8788 Units=m
New Line.LINECmpd_35 Bus1=170 Bus2=183 phases=3 Linecode=4c_.06 Length=13.1947 Units=m
New Line.LINECmpd_36 Bus1=210 Bus2=232 phases=3 Linecode=2c_.0225 Length=11.8998 Units=m
New Line.LINECmpd_37 Bus1=241 Bus2=263 phases=3 Linecode=4c_.06 Length=12.4264 Units=m
New Line.LINECmpd_38 Bus1=210 Bus2=234 phases=3 Linecode=4c_.06 Length=6.9897 Units=m
New Line.LINECmpd_39 Bus1=472 Bus2=479 phases=3 Linecode=2c_.0225 Length=11.8228 Units=m
New Line.LINECmpd_40 Bus1=201 Bus2=219 phases=3 Linecode=2c_.0225 Length=12.9803 Units=m
New Line.LINECmpd_41 Bus1=344 Bus2=356 phases=3 Linecode=2c_.0225 Length=12.4233 Units=m
New Line.LINECmpd_42 Bus1=426 Bus2=440 phases=3 Linecode=2c_.0225 Length=6.337 Units=m
New Line.LINECmpd_43 Bus1=351 Bus2=364 phases=3 Linecode=2c_.0225 Length=12.2431 Units=m
