New Line.LINE12_65 Bus1=12_65 Bus2=12_66 phases=3 Linecode=4c_300_SAC Length=0.47332 Units=m
New Line.LINE12_67 Bus1=12_66 Bus2=12_68 phases=3 Linecode=4c_300_SAC Length=0.72048 Units=m
New Line.LINE12_70 Bus1=12_68 Bus2=12_71 phases=3 Linecode=4c_300_SAC Length=1.0686 Units=m
New Line.LINE12_73 Bus1=12_71 Bus2=12_74 phases=3 Linecode=4c_300_SAC Length=0.85425 Units=m
New Line.LINE12_76 Bus1=12_74 Bus2=12_77 phases=3 Linecode=4c_300_SAC Length=0.79964 Units=m
New Line.LINE12_79 Bus1=12_77 Bus2=12_80 phases=3 Linecode=4c_300_SAC Length=0.56945 Units=m
New Line.LINE12_82 Bus1=12_80 Bus2=12_83 phases=3 Linecode=4c_300_SAC Length=0.4081 Units=m
New Line.LINE12_84 Bus1=12_83 Bus2=12_85 phases=3 Linecode=4c_300_SAC Length=0.391 Units=m
New Line.LINE12_86 Bus1=12_85 Bus2=12_87 phases=3 Linecode=4c_300_SAC Length=0.36271 Units=m
New Line.LINE12_89 Bus1=12_87 Bus2=12_90 phases=3 Linecode=4c_300_SAC Length=0.9651 Units=m
New Line.LINE12_93 Bus1=12_90 Bus2=12_94 phases=3 Linecode=4c_300_SAC Length=1.0592 Units=m
New Line.LINE12_97 Bus1=12_94 Bus2=12_98 phases=3 Linecode=4c_300_SAC Length=5.4917 Units=m
New Line.LINE12_102 Bus1=12_98 Bus2=12_103 phases=3 Linecode=4c_300_SAC Length=3.9741 Units=m
New Line.LINE12_108 Bus1=12_103 Bus2=12_109 phases=3 Linecode=4c_300_SAC Length=6.2021 Units=m
New Line.LINE12_114 Bus1=12_109 Bus2=12_115 phases=3 Linecode=25_SAC_XC Length=18.6333 Units=m
New Line.LINE12_169 Bus1=12_165 Bus2=12_170 phases=3 Linecode=4c_.06 Length=2.1281 Units=m
New Line.LINE12_189 Bus1=12_183 Bus2=12_190 phases=3 Linecode=4c_.06 Length=4.0245 Units=m
New Line.LINE12_209 Bus1=12_201 Bus2=12_210 phases=3 Linecode=4c_.06 Length=12.6298 Units=m
New Line.LINE12_220 Bus1=12_210 Bus2=12_221 phases=3 Linecode=4c_.06 Length=3.3509 Units=m
New Line.LINE12_221 Bus1=12_211 Bus2=12_222 phases=3 Linecode=2c_.0225 Length=5.1057 Units=m
New Line.LINE12_222 Bus1=12_211 Bus2=12_223 phases=3 Linecode=2c_.0225 Length=5.1057 Units=m
New Line.LINE12_233 Bus1=12_221 Bus2=12_234 phases=3 Linecode=4c_.06 Length=3.6388 Units=m
New Line.LINE12_243 Bus1=12_234 Bus2=12_244 phases=3 Linecode=2c_.0225 Length=2.4762 Units=m
New Line.LINE12_250 Bus1=12_241 Bus2=12_251 phases=3 Linecode=2c_.0225 Length=6.7186 Units=m
New Line.LINE12_254 Bus1=12_244 Bus2=12_255 phases=3 Linecode=2c_.0225 Length=0.22672 Units=m
New Line.LINE12_265 Bus1=12_255 Bus2=12_266 phases=3 Linecode=2c_.0225 Length=0.32487 Units=m
New Line.LINE12_273 Bus1=12_263 Bus2=12_274 phases=3 Linecode=4c_.06 Length=7.6317 Units=m
New Line.LINE12_276 Bus1=12_266 Bus2=12_277 phases=3 Linecode=2c_.0225 Length=0.40594 Units=m
New Line.LINE12_277 Bus1=12_267 Bus2=12_278 phases=3 Linecode=2c_.0225 Length=4.4991 Units=m
New Line.LINE12_278 Bus1=12_267 Bus2=12_279 phases=3 Linecode=2c_.0225 Length=4.4991 Units=m
New Line.LINE12_288 Bus1=12_277 Bus2=12_289 phases=3 Linecode=2c_.0225 Length=1.2446 Units=m
New Line.LINE12_297 Bus1=12_289 Bus2=12_298 phases=3 Linecode=2c_.0225 Length=0.27461 Units=m
New Line.LINE12_305 Bus1=12_298 Bus2=12_306 phases=3 Linecode=2c_.0225 Length=0.22638 Units=m
New Line.LINE12_313 Bus1=12_306 Bus2=12_314 phases=3 Linecode=2c_.0225 Length=0.34976 Units=m
New Line.LINE12_318 Bus1=12_311 Bus2=12_319 phases=3 Linecode=2c_.04 Length=7.9319 Units=m
New Line.LINE12_321 Bus1=12_314 Bus2=12_322 phases=3 Linecode=2c_.0225 Length=3.8953 Units=m
New Line.LINE12_325 Bus1=12_319 Bus2=12_326 phases=3 Linecode=2c_.04 Length=5.3493 Units=m
New Line.LINE12_326 Bus1=12_319 Bus2=12_327 phases=3 Linecode=2c_.04 Length=5.3493 Units=m
New Line.LINE12_329 Bus1=12_322 Bus2=12_330 phases=3 Linecode=2c_.0225 Length=0.15988 Units=m
New Line.LINE12_335 Bus1=12_330 Bus2=12_336 phases=3 Linecode=2c_.0225 Length=0.21537 Units=m
New Line.LINE12_341 Bus1=12_336 Bus2=12_342 phases=3 Linecode=2c_.0225 Length=0.18832 Units=m
New Line.LINE12_347 Bus1=12_342 Bus2=12_348 phases=3 Linecode=2c_.0225 Length=0.21465 Units=m
New Line.LINE12_350 Bus1=12_344 Bus2=12_351 phases=3 Linecode=4c_.06 Length=13.1234 Units=m
New Line.LINE12_353 Bus1=12_348 Bus2=12_354 phases=3 Linecode=2c_.0225 Length=0.522 Units=m
New Line.LINE12_357 Bus1=12_351 Bus2=12_358 phases=3 Linecode=4c_.06 Length=3.0093 Units=m
New Line.LINE12_360 Bus1=12_354 Bus2=12_361 phases=3 Linecode=2c_.0225 Length=1.0967 Units=m
New Line.LINE12_361 Bus1=12_354 Bus2=12_362 phases=3 Linecode=2c_.0225 Length=1.0967 Units=m
New Line.LINE12_365 Bus1=12_358 Bus2=12_366 phases=3 Linecode=4c_.06 Length=2.8695 Units=m
New Line.LINE12_370 Bus1=12_366 Bus2=12_371 phases=3 Linecode=2c_.0225 Length=2.1311 Units=m
New Line.LINE12_376 Bus1=12_371 Bus2=12_377 phases=3 Linecode=2c_.0225 Length=0.51751 Units=m
New Line.LINE12_381 Bus1=12_377 Bus2=12_382 phases=3 Linecode=2c_.0225 Length=0.26011 Units=m
New Line.LINE12_386 Bus1=12_382 Bus2=12_387 phases=3 Linecode=2c_.0225 Length=0.2452 Units=m
New Line.LINE12_391 Bus1=12_387 Bus2=12_392 phases=3 Linecode=2c_.0225 Length=0.21019 Units=m
New Line.LINE12_397 Bus1=12_392 Bus2=12_398 phases=3 Linecode=2c_.0225 Length=0.44931 Units=m
New Line.LINE12_401 Bus1=12_398 Bus2=12_402 phases=3 Linecode=2c_.0225 Length=1.0331 Units=m
New Line.LINE12_404 Bus1=12_402 Bus2=12_405 phases=3 Linecode=2c_.0225 Length=0.77086 Units=m
New Line.LINE12_405 Bus1=12_403 Bus2=12_406 phases=3 Linecode=2c_.0225 Length=5.2004 Units=m
New Line.LINE12_408 Bus1=12_405 Bus2=12_409 phases=3 Linecode=2c_.0225 Length=0.36628 Units=m
New Line.LINE12_413 Bus1=12_409 Bus2=12_414 phases=3 Linecode=2c_.0225 Length=0.2531 Units=m
New Line.LINE12_418 Bus1=12_414 Bus2=12_419 phases=3 Linecode=2c_.0225 Length=0.30959 Units=m
New Line.LINE12_422 Bus1=12_419 Bus2=12_423 phases=3 Linecode=2c_.0225 Length=2.3991 Units=m
New Line.LINE12_425 Bus1=12_421 Bus2=12_426 phases=3 Linecode=2c_.0225 Length=5.2133 Units=m
New Line.LINE12_427 Bus1=12_423 Bus2=12_428 phases=3 Linecode=2c_.0225 Length=0.35512 Units=m
New Line.LINE12_434 Bus1=12_428 Bus2=12_435 phases=3 Linecode=2c_.0225 Length=0.17923 Units=m
New Line.LINE12_441 Bus1=12_435 Bus2=12_442 phases=3 Linecode=2c_.0225 Length=0.066468 Units=m
New Line.LINE12_447 Bus1=12_442 Bus2=12_448 phases=3 Linecode=2c_.0225 Length=0.14863 Units=m
New Line.LINE12_451 Bus1=12_448 Bus2=12_452 phases=3 Linecode=2c_.0225 Length=0.611 Units=m
New Line.LINE12_454 Bus1=12_452 Bus2=12_455 phases=3 Linecode=2c_.0225 Length=5.158 Units=m
New Line.LINE12_455 Bus1=12_452 Bus2=12_456 phases=3 Linecode=2c_.0225 Length=5.158 Units=m
New Line.LINE12_471 Bus1=12_471 Bus2=12_472 phases=3 Linecode=4c_.06 Length=2.6474 Units=m
New Line.LINE12_475 Bus1=12_472 Bus2=12_476 phases=3 Linecode=2c_.0225 Length=6.5334 Units=m
New Line.LINE12_478 Bus1=12_476 Bus2=12_479 phases=3 Linecode=2c_.0225 Length=5.2894 Units=m
New Line.LINE12_Cmpd_0 Bus1=12_251 Bus2=12_317 phases=3 Linecode=2c_.0225 Length=7.66833 Units=m
New Line.LINE12_Cmpd_1 Bus1=12_1 Bus2=12_65 phases=3 Linecode=4c_70 Length=76.306289 Units=m
New Line.LINE12_Cmpd_2 Bus1=12_251 Bus2=12_271 phases=3 Linecode=2c_.0225 Length=5.9651 Units=m
New Line.LINE12_Cmpd_3 Bus1=12_190 Bus2=12_344 phases=3 Linecode=4c_.06 Length=28.22103 Units=m
New Line.LINE12_Cmpd_4 Bus1=12_457 Bus2=12_471 phases=3 Linecode=4c_.06 Length=12.646 Units=m
New Line.LINE12_Cmpd_5 Bus1=12_100 Bus2=12_199 phases=3 Linecode=4c_.06 Length=12.785968 Units=m
New Line.LINE12_Cmpd_6 Bus1=12_65 Bus2=12_100 phases=3 Linecode=4c_.1 Length=42.60539 Units=m
New Line.LINE12_Cmpd_7 Bus1=12_241 Bus2=12_263 phases=3 Linecode=4c_.06 Length=12.4264 Units=m
New Line.LINE12_Cmpd_8 Bus1=12_311 Bus2=12_388 phases=3 Linecode=4c_.06 Length=18.40222 Units=m
New Line.LINE12_Cmpd_9 Bus1=12_274 Bus2=12_345 phases=3 Linecode=2c_.0225 Length=14.19401 Units=m
New Line.LINE12_Cmpd_10 Bus1=12_457 Bus2=12_469 phases=3 Linecode=2c_.0225 Length=11.26687 Units=m
New Line.LINE12_Cmpd_11 Bus1=12_263 Bus2=12_284 phases=3 Linecode=2c_.0225 Length=13.2476 Units=m
New Line.LINE12_Cmpd_12 Bus1=12_165 Bus2=12_211 phases=3 Linecode=2c_.0225 Length=10.89 Units=m
New Line.LINE12_Cmpd_13 Bus1=12_183 Bus2=12_196 phases=3 Linecode=2c_.0225 Length=12.5884 Units=m
New Line.LINE12_Cmpd_14 Bus1=12_403 Bus2=12_421 phases=3 Linecode=4c_.06 Length=14.6645 Units=m
New Line.LINE12_Cmpd_15 Bus1=12_199 Bus2=12_332 phases=3 Linecode=2c_.0225 Length=18.12726 Units=m
New Line.LINE12_Cmpd_16 Bus1=12_426 Bus2=12_461 phases=3 Linecode=2c_.0225 Length=7.355172 Units=m
New Line.LINE12_Cmpd_17 Bus1=12_274 Bus2=12_311 phases=3 Linecode=4c_.06 Length=15.5397 Units=m
New Line.LINE12_Cmpd_18 Bus1=12_190 Bus2=12_267 phases=3 Linecode=2c_.0225 Length=10.1129 Units=m
New Line.LINE12_Cmpd_19 Bus1=12_143 Bus2=12_201 phases=3 Linecode=4c_.06 Length=18.50579 Units=m
New Line.LINE12_Cmpd_20 Bus1=12_421 Bus2=12_457 phases=3 Linecode=4c_.06 Length=16.0484 Units=m
New Line.LINE12_Cmpd_21 Bus1=12_406 Bus2=12_415 phases=3 Linecode=2c_.0225 Length=6.48941 Units=m
New Line.LINE12_Cmpd_22 Bus1=12_351 Bus2=12_364 phases=3 Linecode=2c_.0225 Length=12.2431 Units=m
New Line.LINE12_Cmpd_23 Bus1=12_388 Bus2=12_399 phases=3 Linecode=2c_.0225 Length=10.1249 Units=m
New Line.LINE12_Cmpd_24 Bus1=12_199 Bus2=12_217 phases=3 Linecode=4c_.06 Length=3.4967 Units=m
New Line.LINE12_Cmpd_25 Bus1=12_406 Bus2=12_443 phases=3 Linecode=2c_.0225 Length=7.05925 Units=m
New Line.LINE12_Cmpd_26 Bus1=12_426 Bus2=12_440 phases=3 Linecode=2c_.0225 Length=6.337 Units=m
New Line.LINE12_Cmpd_27 Bus1=12_471 Bus2=12_477 phases=3 Linecode=2c_.0225 Length=11.8922 Units=m
New Line.LINE12_Cmpd_28 Bus1=12_100 Bus2=12_143 phases=3 Linecode=4c_.1 Length=18.14295 Units=m
New Line.LINE12_Cmpd_29 Bus1=12_217 Bus2=12_240 phases=3 Linecode=2c_.0225 Length=13.0289 Units=m
New Line.LINE12_Cmpd_30 Bus1=12_388 Bus2=12_403 phases=3 Linecode=4c_.06 Length=12.2146 Units=m
New Line.LINE12_Cmpd_31 Bus1=12_217 Bus2=12_241 phases=3 Linecode=4c_.06 Length=13.9863 Units=m
New Line.LINE12_Cmpd_32 Bus1=12_143 Bus2=12_165 phases=3 Linecode=4c_.06 Length=11.99209 Units=m
New Line.LINE12_Cmpd_33 Bus1=12_344 Bus2=12_356 phases=3 Linecode=2c_.0225 Length=12.4233 Units=m
New Line.LINE12_Cmpd_34 Bus1=12_201 Bus2=12_219 phases=3 Linecode=2c_.0225 Length=12.9803 Units=m
New Line.LINE12_Cmpd_35 Bus1=12_210 Bus2=12_232 phases=3 Linecode=2c_.0225 Length=11.8998 Units=m
New Line.LINE12_Cmpd_36 Bus1=12_170 Bus2=12_183 phases=3 Linecode=4c_.06 Length=13.1947 Units=m
New Line.LINE12_Cmpd_37 Bus1=12_170 Bus2=12_181 phases=3 Linecode=2c_.0225 Length=14.7847 Units=m
