New Line.LINE11 Bus1=11 Bus2=12 phases=3 Linecode=4c_.25 Length=0.98668 Units=m
New Line.LINE12 Bus1=12 Bus2=13 phases=3 Linecode=4c_.25 Length=0.085494 Units=m
New Line.LINE13 Bus1=13 Bus2=14 phases=3 Linecode=4c_.25 Length=0.1414 Units=m
New Line.LINE14 Bus1=14 Bus2=15 phases=3 Linecode=4c_.25 Length=0.1009 Units=m
New Line.LINE15 Bus1=15 Bus2=16 phases=3 Linecode=4c_.25 Length=0.097062 Units=m
New Line.LINE16 Bus1=16 Bus2=17 phases=3 Linecode=4c_.25 Length=0.13025 Units=m
New Line.LINE17 Bus1=17 Bus2=18 phases=3 Linecode=4c_.25 Length=0.129 Units=m
New Line.LINE18 Bus1=18 Bus2=19 phases=3 Linecode=4c_.25 Length=0.10502 Units=m
New Line.LINE19 Bus1=19 Bus2=110 phases=3 Linecode=4c_.25 Length=0.53928 Units=m
New Line.LINE110 Bus1=110 Bus2=111 phases=3 Linecode=4c_.25 Length=0.16256 Units=m
New Line.LINE111 Bus1=111 Bus2=112 phases=3 Linecode=4c_.25 Length=0.164 Units=m
New Line.LINE112 Bus1=112 Bus2=113 phases=3 Linecode=4c_.25 Length=0.15146 Units=m
New Line.LINE113 Bus1=113 Bus2=114 phases=3 Linecode=4c_.25 Length=0.15033 Units=m
New Line.LINE114 Bus1=114 Bus2=115 phases=3 Linecode=4c_.25 Length=0.101 Units=m
New Line.LINE115 Bus1=115 Bus2=116 phases=3 Linecode=4c_.25 Length=0.20304 Units=m
New Line.LINE116 Bus1=116 Bus2=117 phases=3 Linecode=4c_.25 Length=0.28936 Units=m
New Line.LINE117 Bus1=117 Bus2=118 phases=3 Linecode=4c_.25 Length=0.37381 Units=m
New Line.LINE118 Bus1=118 Bus2=119 phases=3 Linecode=4c_.25 Length=0.4315 Units=m
New Line.LINE119 Bus1=119 Bus2=120 phases=3 Linecode=4c_.25 Length=0.38908 Units=m
New Line.LINE120 Bus1=120 Bus2=121 phases=3 Linecode=4c_.25 Length=0.42339 Units=m
New Line.LINE121 Bus1=121 Bus2=122 phases=3 Linecode=4c_.25 Length=0.36872 Units=m
New Line.LINE122 Bus1=122 Bus2=123 phases=3 Linecode=4c_.25 Length=0.32704 Units=m
New Line.LINE123 Bus1=123 Bus2=124 phases=3 Linecode=4c_.25 Length=0.41008 Units=m
New Line.LINE124 Bus1=124 Bus2=125 phases=3 Linecode=4c_.25 Length=0.40317 Units=m
New Line.LINE125 Bus1=125 Bus2=126 phases=3 Linecode=4c_.25 Length=0.44942 Units=m
New Line.LINE126 Bus1=126 Bus2=127 phases=3 Linecode=4c_.25 Length=0.2329 Units=m
New Line.LINE127 Bus1=127 Bus2=128 phases=3 Linecode=4c_.25 Length=0.3891 Units=m
New Line.LINE128 Bus1=128 Bus2=129 phases=3 Linecode=3c_240_SAC_XC Length=0.57277 Units=m
New Line.LINE129 Bus1=129 Bus2=130 phases=3 Linecode=3c_240_SAC_XC Length=6.5824 Units=m
New Line.LINE130 Bus1=130 Bus2=131 phases=3 Linecode=3c_240_SAC_XC Length=1.5394 Units=m
New Line.LINE131 Bus1=131 Bus2=132 phases=3 Linecode=3c_240_SAC_XC Length=0.30305 Units=m
New Line.LINE132 Bus1=132 Bus2=133 phases=3 Linecode=3c_240_SAC_XC Length=0.36586 Units=m
New Line.LINE133 Bus1=133 Bus2=134 phases=3 Linecode=3c_240_SAC_XC Length=0.46683 Units=m
New Line.LINE134 Bus1=134 Bus2=135 phases=3 Linecode=3c_240_SAC_XC Length=0.49314 Units=m
New Line.LINE135 Bus1=135 Bus2=136 phases=3 Linecode=3c_240_SAC_XC Length=1.287 Units=m
New Line.LINE136 Bus1=136 Bus2=137 phases=3 Linecode=3c_240_SAC_XC Length=0.67711 Units=m
New Line.LINE137 Bus1=137 Bus2=138 phases=3 Linecode=3c_240_SAC_XC Length=0.19671 Units=m
New Line.LINE138 Bus1=138 Bus2=139 phases=3 Linecode=3c_240_SAC_XC Length=0.11802 Units=m
New Line.LINE139 Bus1=139 Bus2=140 phases=3 Linecode=3c_240_SAC_XC Length=0.085999 Units=m
New Line.LINE140 Bus1=140 Bus2=141 phases=3 Linecode=3c_240_SAC_XC Length=0.072835 Units=m
New Line.LINE141 Bus1=141 Bus2=142 phases=3 Linecode=3c_240_SAC_XC Length=0.063152 Units=m
New Line.LINE142 Bus1=142 Bus2=143 phases=3 Linecode=3c_240_SAC_XC Length=0.067778 Units=m
New Line.LINE143 Bus1=143 Bus2=144 phases=3 Linecode=3c_240_SAC_XC Length=0.074632 Units=m
New Line.LINE144 Bus1=144 Bus2=145 phases=3 Linecode=3c_240_SAC_XC Length=0.075689 Units=m
New Line.LINE145 Bus1=145 Bus2=146 phases=3 Linecode=3c_240_SAC_XC Length=0.15166 Units=m
New Line.LINE146 Bus1=146 Bus2=147 phases=3 Linecode=3c_300_SAC_XC Length=0.12107 Units=m
New Line.LINE147 Bus1=146 Bus2=148 phases=3 Linecode=3c_300_SAC_XC Length=0.22119 Units=m
New Line.LINE148 Bus1=146 Bus2=149 phases=3 Linecode=3c_300_SAC_XC Length=0.22119 Units=m
New Line.LINE149 Bus1=147 Bus2=150 phases=3 Linecode=3c_300_SAC_XC Length=0.075181 Units=m
New Line.LINE150 Bus1=148 Bus2=151 phases=3 Linecode=3c_300_SAC_XC Length=0.18131 Units=m
New Line.LINE151 Bus1=148 Bus2=152 phases=3 Linecode=3c_300_SAC_XC Length=0.01 Units=m
New Line.LINE152 Bus1=148 Bus2=153 phases=3 Linecode=3c_300_SAC_XC Length=0.01 Units=m
New Line.LINE153 Bus1=148 Bus2=154 phases=3 Linecode=3c_300_SAC_XC Length=0.01 Units=m
New Line.LINE154 Bus1=148 Bus2=155 phases=3 Linecode=3c_300_SAC_XC Length=0.01 Units=m
New Line.LINE155 Bus1=148 Bus2=156 phases=3 Linecode=3c_300_SAC_XC Length=0.01 Units=m
New Line.LINE156 Bus1=148 Bus2=157 phases=3 Linecode=3c_300_SAC_XC Length=0.01 Units=m
New Line.LINE157 Bus1=150 Bus2=158 phases=3 Linecode=3c_300_SAC_XC Length=0.075286 Units=m
New Line.LINE158 Bus1=151 Bus2=159 phases=3 Linecode=3c_300_SAC_XC Length=0.07713 Units=m
New Line.LINE159 Bus1=151 Bus2=160 phases=3 Linecode=3c_300_SAC_XC Length=0.07713 Units=m
New Line.LINE160 Bus1=158 Bus2=161 phases=3 Linecode=3c_300_SAC_XC Length=0.074674 Units=m
New Line.LINE161 Bus1=159 Bus2=162 phases=3 Linecode=3c_300_SAC_XC Length=0.087596 Units=m
New Line.LINE162 Bus1=159 Bus2=163 phases=3 Linecode=3c_300_SAC_XC Length=0.087596 Units=m
New Line.LINE163 Bus1=161 Bus2=164 phases=3 Linecode=3c_300_SAC_XC Length=0.075059 Units=m
New Line.LINE164 Bus1=162 Bus2=165 phases=3 Linecode=3c_300_SAC_XC Length=0.32293 Units=m
New Line.LINE165 Bus1=162 Bus2=166 phases=3 Linecode=3c_300_SAC_XC Length=0.32293 Units=m
New Line.LINE166 Bus1=164 Bus2=167 phases=3 Linecode=3c_300_SAC_XC Length=0.074953 Units=m
New Line.LINE167 Bus1=165 Bus2=168 phases=3 Linecode=3c_300_SAC_XC Length=0.30256 Units=m
New Line.LINE168 Bus1=165 Bus2=169 phases=3 Linecode=3c_300_SAC_XC Length=0.30256 Units=m
New Line.LINE169 Bus1=167 Bus2=170 phases=3 Linecode=3c_300_SAC_XC Length=1.9412 Units=m
New Line.LINE170 Bus1=168 Bus2=171 phases=3 Linecode=3c_300_SAC_XC Length=9.43 Units=m
New Line.LINE171 Bus1=168 Bus2=172 phases=3 Linecode=3c_300_SAC_XC Length=9.43 Units=m
New Line.LINE172 Bus1=170 Bus2=173 phases=3 Linecode=3c_300_SAC_XC Length=3.1523 Units=m
New Line.LINE173 Bus1=171 Bus2=174 phases=3 Linecode=3c_300_SAC_XC Length=0.10959 Units=m
New Line.LINE174 Bus1=171 Bus2=175 phases=3 Linecode=3c_300_SAC_XC Length=0.10959 Units=m
New Line.LINE175 Bus1=173 Bus2=176 phases=3 Linecode=3c_300_SAC_XC Length=1.4248 Units=m
New Line.LINE176 Bus1=174 Bus2=177 phases=3 Linecode=3c_300_SAC_XC Length=0.10979 Units=m
New Line.LINE177 Bus1=174 Bus2=178 phases=3 Linecode=3c_300_SAC_XC Length=0.10979 Units=m
New Line.LINE178 Bus1=176 Bus2=179 phases=3 Linecode=3c_300_SAC_XC Length=1.482 Units=m
New Line.LINE179 Bus1=177 Bus2=180 phases=3 Linecode=3c_300_SAC_XC Length=0.10945 Units=m
New Line.LINE180 Bus1=177 Bus2=181 phases=3 Linecode=3c_300_SAC_XC Length=0.10945 Units=m
New Line.LINE181 Bus1=179 Bus2=182 phases=3 Linecode=3c_300_SAC_XC Length=4.2359 Units=m
New Line.LINE182 Bus1=180 Bus2=183 phases=3 Linecode=3c_300_SAC_XC Length=3.038 Units=m
New Line.LINE183 Bus1=180 Bus2=184 phases=3 Linecode=3c_300_SAC_XC Length=3.038 Units=m
New Line.LINE184 Bus1=182 Bus2=185 phases=3 Linecode=3c_300_SAC_XC Length=4.0765 Units=m
New Line.LINE185 Bus1=183 Bus2=186 phases=3 Linecode=3c_300_SAC_XC Length=12.6376 Units=m
New Line.LINE186 Bus1=183 Bus2=187 phases=3 Linecode=3c_300_SAC_XC Length=12.6376 Units=m
New Line.LINE187 Bus1=185 Bus2=188 phases=3 Linecode=3c_300_SAC_XC Length=0.058249 Units=m
New Line.LINE188 Bus1=186 Bus2=189 phases=3 Linecode=3c_300_SAC_XC Length=1.453 Units=m
New Line.LINE189 Bus1=186 Bus2=190 phases=3 Linecode=3c_300_SAC_XC Length=1.453 Units=m
New Line.LINE190 Bus1=188 Bus2=191 phases=3 Linecode=3c_300_SAC_XC Length=0.063008 Units=m
New Line.LINE191 Bus1=189 Bus2=192 phases=3 Linecode=3c_300_SAC_XC Length=0.99474 Units=m
New Line.LINE192 Bus1=189 Bus2=193 phases=3 Linecode=3c_300_SAC_XC Length=0.99474 Units=m
New Line.LINE193 Bus1=191 Bus2=194 phases=3 Linecode=3c_300_SAC_XC Length=0.079006 Units=m
New Line.LINE194 Bus1=192 Bus2=195 phases=3 Linecode=3c_300_SAC_XC Length=0.99445 Units=m
New Line.LINE195 Bus1=192 Bus2=196 phases=3 Linecode=3c_300_SAC_XC Length=0.99445 Units=m
New Line.LINE196 Bus1=194 Bus2=197 phases=3 Linecode=3c_300_SAC_XC Length=0.631 Units=m
New Line.LINE197 Bus1=195 Bus2=198 phases=3 Linecode=3c_300_SAC_XC Length=0.99577 Units=m
New Line.LINE198 Bus1=195 Bus2=199 phases=3 Linecode=3c_300_SAC_XC Length=0.99577 Units=m
New Line.LINE199 Bus1=197 Bus2=1100 phases=3 Linecode=3c_300_SAC_XC Length=0.761 Units=m
New Line.LINE1100 Bus1=198 Bus2=1101 phases=3 Linecode=3c_300_SAC_XC Length=0.85507 Units=m
New Line.LINE1101 Bus1=198 Bus2=1102 phases=3 Linecode=3c_300_SAC_XC Length=0.85507 Units=m
New Line.LINE1102 Bus1=1100 Bus2=1103 phases=3 Linecode=3c_300_SAC_XC Length=0.36201 Units=m
New Line.LINE1103 Bus1=1101 Bus2=1104 phases=3 Linecode=3c_300_SAC_XC Length=0.855 Units=m
New Line.LINE1104 Bus1=1101 Bus2=1105 phases=3 Linecode=3c_300_SAC_XC Length=0.855 Units=m
New Line.LINE1105 Bus1=1103 Bus2=1106 phases=3 Linecode=3c_300_SAC_XC Length=0.262 Units=m
New Line.LINE1106 Bus1=1104 Bus2=1107 phases=3 Linecode=3c_300_SAC_XC Length=0.85561 Units=m
New Line.LINE1107 Bus1=1104 Bus2=1108 phases=3 Linecode=3c_300_SAC_XC Length=0.85561 Units=m
New Line.LINE1108 Bus1=1106 Bus2=1109 phases=3 Linecode=3c_300_SAC_XC Length=0.2146 Units=m
New Line.LINE1109 Bus1=1107 Bus2=1110 phases=3 Linecode=3c_300_SAC_XC Length=0.85506 Units=m
New Line.LINE1110 Bus1=1107 Bus2=1111 phases=3 Linecode=3c_300_SAC_XC Length=0.85506 Units=m
New Line.LINE1111 Bus1=1109 Bus2=1112 phases=3 Linecode=3c_300_SAC_XC Length=0.1063 Units=m
New Line.LINE1112 Bus1=1110 Bus2=1113 phases=3 Linecode=3c_300_SAC_XC Length=0.856 Units=m
New Line.LINE1113 Bus1=1110 Bus2=1114 phases=3 Linecode=3c_300_SAC_XC Length=0.856 Units=m
New Line.LINE1114 Bus1=1112 Bus2=1115 phases=3 Linecode=3c_300_SAC_XC Length=0.16568 Units=m
New Line.LINE1115 Bus1=1113 Bus2=1116 phases=3 Linecode=3c_300_SAC_XC Length=11.9821 Units=m
New Line.LINE1116 Bus1=1113 Bus2=1117 phases=3 Linecode=3c_300_SAC_XC Length=11.9821 Units=m
New Line.LINE1117 Bus1=1115 Bus2=1118 phases=3 Linecode=3c_300_SAC_XC Length=0.24574 Units=m
New Line.LINE1118 Bus1=1116 Bus2=1119 phases=3 Linecode=25_SAC_XC Length=6.4739 Units=m
New Line.LINE1119 Bus1=1116 Bus2=1120 phases=3 Linecode=25_SAC_XC Length=9.0685 Units=m
New Line.LINE1120 Bus1=1116 Bus2=1121 phases=3 Linecode=25_SAC_XC Length=9.0685 Units=m
New Line.LINE1121 Bus1=1116 Bus2=1122 phases=3 Linecode=25_SAC_XC Length=9.0685 Units=m
New Line.LINE1122 Bus1=1116 Bus2=1123 phases=3 Linecode=25_SAC_XC Length=9.0685 Units=m
New Line.LINE1123 Bus1=1116 Bus2=1124 phases=3 Linecode=25_SAC_XC Length=9.0685 Units=m
New Line.LINE1124 Bus1=1116 Bus2=1125 phases=3 Linecode=25_SAC_XC Length=9.0685 Units=m
New Line.LINE1125 Bus1=1116 Bus2=1126 phases=3 Linecode=25_SAC_XC Length=9.0685 Units=m
New Line.LINE1126 Bus1=1116 Bus2=1127 phases=3 Linecode=25_SAC_XC Length=9.0685 Units=m
New Line.LINE1127 Bus1=1116 Bus2=1128 phases=3 Linecode=25_SAC_XC Length=9.0685 Units=m
New Line.LINE1128 Bus1=1116 Bus2=1129 phases=3 Linecode=25_SAC_XC Length=9.0685 Units=m
New Line.LINE1129 Bus1=1116 Bus2=1130 phases=3 Linecode=25_SAC_XC Length=9.0685 Units=m
New Line.LINE1130 Bus1=1118 Bus2=1131 phases=3 Linecode=3c_300_SAC_XC Length=0.20904 Units=m
New Line.LINE1131 Bus1=1120 Bus2=1132 phases=3 Linecode=25_SAC_XC Length=10.4913 Units=m
New Line.LINE1132 Bus1=1131 Bus2=1133 phases=3 Linecode=3c_300_SAC_XC Length=0.14658 Units=m
New Line.LINE1133 Bus1=1132 Bus2=1134 phases=3 Linecode=3c_95_SAC_XC Length=0.3118 Units=m
New Line.LINE1134 Bus1=1132 Bus2=1135 phases=3 Linecode=3c_95_SAC_XC Length=0.3118 Units=m
New Line.LINE1135 Bus1=1133 Bus2=1136 phases=3 Linecode=3c_300_SAC_XC Length=0.16498 Units=m
New Line.LINE1136 Bus1=1134 Bus2=1137 phases=3 Linecode=3c_95_SAC_XC Length=0.18147 Units=m
New Line.LINE1137 Bus1=1134 Bus2=1138 phases=3 Linecode=3c_95_SAC_XC Length=0.18147 Units=m
New Line.LINE1138 Bus1=1136 Bus2=1139 phases=3 Linecode=3c_300_SAC_XC Length=0.15212 Units=m
New Line.LINE1139 Bus1=1137 Bus2=1140 phases=3 Linecode=3c_95_SAC_XC Length=0.19 Units=m
New Line.LINE1140 Bus1=1137 Bus2=1141 phases=3 Linecode=3c_95_SAC_XC Length=0.19 Units=m
New Line.LINE1141 Bus1=1139 Bus2=1142 phases=3 Linecode=4c_300_SAC Length=0.17464 Units=m
New Line.LINE1142 Bus1=1140 Bus2=1143 phases=3 Linecode=3c_95_SAC_XC Length=0.23921 Units=m
New Line.LINE1143 Bus1=1140 Bus2=1144 phases=3 Linecode=3c_95_SAC_XC Length=0.23921 Units=m
New Line.LINE1144 Bus1=1142 Bus2=1145 phases=3 Linecode=4c_300_SAC Length=0.15357 Units=m
New Line.LINE1145 Bus1=1143 Bus2=1146 phases=3 Linecode=3c_95_SAC_XC Length=0.28984 Units=m
New Line.LINE1146 Bus1=1143 Bus2=1147 phases=3 Linecode=3c_95_SAC_XC Length=0.28984 Units=m
New Line.LINE1147 Bus1=1145 Bus2=1148 phases=3 Linecode=4c_300_SAC Length=0.20309 Units=m
New Line.LINE1148 Bus1=1146 Bus2=1149 phases=3 Linecode=3c_95_SAC_XC Length=0.135 Units=m
New Line.LINE1149 Bus1=1146 Bus2=1150 phases=3 Linecode=3c_95_SAC_XC Length=0.135 Units=m
New Line.LINE1150 Bus1=1148 Bus2=1151 phases=3 Linecode=4c_300_SAC Length=4.8113 Units=m
New Line.LINE1151 Bus1=1149 Bus2=1152 phases=3 Linecode=3c_95_SAC_XC Length=3.3735 Units=m
New Line.LINE1152 Bus1=1149 Bus2=1153 phases=3 Linecode=3c_95_SAC_XC Length=3.3735 Units=m
New Line.LINE1153 Bus1=1151 Bus2=1154 phases=3 Linecode=3c_300_SAC_XC Length=0.25871 Units=m
New Line.LINE1154 Bus1=1152 Bus2=1155 phases=3 Linecode=3c_95_SAC_XC Length=0.4102 Units=m
New Line.LINE1155 Bus1=1152 Bus2=1156 phases=3 Linecode=3c_95_SAC_XC Length=0.4102 Units=m
New Line.LINE1156 Bus1=1154 Bus2=1157 phases=3 Linecode=3c_300_SAC_XC Length=0.07879 Units=m
New Line.LINE1157 Bus1=1155 Bus2=1158 phases=3 Linecode=3c_95_SAC_XC Length=0.39669 Units=m
New Line.LINE1158 Bus1=1155 Bus2=1159 phases=3 Linecode=3c_95_SAC_XC Length=0.39669 Units=m
New Line.LINE1159 Bus1=1157 Bus2=1160 phases=3 Linecode=3c_300_SAC_XC Length=0.1589 Units=m
New Line.LINE1160 Bus1=1158 Bus2=1161 phases=3 Linecode=3c_95_SAC_XC Length=0.26685 Units=m
New Line.LINE1161 Bus1=1158 Bus2=1162 phases=3 Linecode=3c_95_SAC_XC Length=0.26685 Units=m
New Line.LINE1162 Bus1=1160 Bus2=1163 phases=3 Linecode=3c_300_SAC_XC Length=0.13121 Units=m
New Line.LINE1163 Bus1=1161 Bus2=1164 phases=3 Linecode=3c_95_SAC_XC Length=0.32315 Units=m
New Line.LINE1164 Bus1=1161 Bus2=1165 phases=3 Linecode=3c_95_SAC_XC Length=0.32315 Units=m
New Line.LINE1165 Bus1=1163 Bus2=1166 phases=3 Linecode=3c_300_SAC_XC Length=0.29565 Units=m
New Line.LINE1166 Bus1=1164 Bus2=1167 phases=3 Linecode=3c_95_SAC_XC Length=0.32389 Units=m
New Line.LINE1167 Bus1=1164 Bus2=1168 phases=3 Linecode=3c_95_SAC_XC Length=0.32389 Units=m
New Line.LINE1168 Bus1=1166 Bus2=1169 phases=3 Linecode=3c_300_SAC_XC Length=0.18292 Units=m
New Line.LINE1169 Bus1=1167 Bus2=1170 phases=3 Linecode=3c_95_SAC_XC Length=0.28321 Units=m
New Line.LINE1170 Bus1=1167 Bus2=1171 phases=3 Linecode=3c_95_SAC_XC Length=0.28321 Units=m
New Line.LINE1171 Bus1=1169 Bus2=1172 phases=3 Linecode=3c_300_SAC_XC Length=0.29908 Units=m
New Line.LINE1172 Bus1=1170 Bus2=1173 phases=3 Linecode=3c_95_SAC_XC Length=0.48237 Units=m
New Line.LINE1173 Bus1=1170 Bus2=1174 phases=3 Linecode=3c_95_SAC_XC Length=0.48237 Units=m
New Line.LINE1174 Bus1=1172 Bus2=1175 phases=3 Linecode=3c_300_SAC_XC Length=0.27674 Units=m
New Line.LINE1175 Bus1=1173 Bus2=1176 phases=3 Linecode=3c_95_SAC_XC Length=0.27458 Units=m
New Line.LINE1176 Bus1=1173 Bus2=1177 phases=3 Linecode=3c_95_SAC_XC Length=0.27458 Units=m
New Line.LINE1177 Bus1=1175 Bus2=1178 phases=3 Linecode=3c_300_SAC_XC Length=1.3341 Units=m
New Line.LINE1178 Bus1=1176 Bus2=1179 phases=3 Linecode=3c_95_SAC_XC Length=0.30273 Units=m
New Line.LINE1179 Bus1=1176 Bus2=1180 phases=3 Linecode=3c_95_SAC_XC Length=0.30273 Units=m
New Line.LINE1180 Bus1=1178 Bus2=1181 phases=3 Linecode=3c_300_SAC_XC Length=1.4684 Units=m
New Line.LINE1181 Bus1=1178 Bus2=1182 phases=3 Linecode=4c_300_SAC Length=1.539 Units=m
New Line.LINE1182 Bus1=1179 Bus2=1183 phases=3 Linecode=3c_95_SAC_XC Length=0.36863 Units=m
New Line.LINE1183 Bus1=1179 Bus2=1184 phases=3 Linecode=3c_95_SAC_XC Length=0.36863 Units=m
New Line.LINE1184 Bus1=1181 Bus2=1185 phases=3 Linecode=3c_300_SAC_XC Length=0.66343 Units=m
New Line.LINE1185 Bus1=1182 Bus2=1186 phases=3 Linecode=4c_300_SAC Length=0.51233 Units=m
New Line.LINE1186 Bus1=1183 Bus2=1187 phases=3 Linecode=3c_95_SAC_XC Length=0.42977 Units=m
New Line.LINE1187 Bus1=1183 Bus2=1188 phases=3 Linecode=3c_95_SAC_XC Length=0.42977 Units=m
New Line.LINE1188 Bus1=1185 Bus2=1189 phases=3 Linecode=3c_300_SAC_XC Length=1.2185 Units=m
New Line.LINE1189 Bus1=1186 Bus2=1190 phases=3 Linecode=4c_300_SAC Length=0.6228 Units=m
New Line.LINE1190 Bus1=1187 Bus2=1191 phases=3 Linecode=3c_95_SAC_XC Length=1.2949 Units=m
New Line.LINE1191 Bus1=1189 Bus2=1192 phases=3 Linecode=3c_300_SAC_XC Length=1.7239 Units=m
New Line.LINE1192 Bus1=1190 Bus2=1193 phases=3 Linecode=4c_300_SAC Length=0.48515 Units=m
New Line.LINE1193 Bus1=1191 Bus2=1194 phases=3 Linecode=3c_95_SAC_XC Length=0.47746 Units=m
New Line.LINE1194 Bus1=1191 Bus2=1195 phases=3 Linecode=3c_95_SAC_XC Length=0.47746 Units=m
New Line.LINE1195 Bus1=1192 Bus2=1196 phases=3 Linecode=3c_300_ASN Length=15.0222 Units=m
New Line.LINE1196 Bus1=1193 Bus2=1197 phases=3 Linecode=4c_300_SAC Length=0.53984 Units=m
New Line.LINE1197 Bus1=1194 Bus2=1198 phases=3 Linecode=3c_95_SAC_XC Length=0.10286 Units=m
New Line.LINE1198 Bus1=1194 Bus2=1199 phases=3 Linecode=3c_95_SAC_XC Length=0.10286 Units=m
New Line.LINE1199 Bus1=1196 Bus2=1200 phases=3 Linecode=3c_300_ASN Length=8.8983 Units=m
New Line.LINE1200 Bus1=1197 Bus2=1201 phases=3 Linecode=4c_300_SAC Length=0.4046 Units=m
New Line.LINE1201 Bus1=1198 Bus2=1202 phases=3 Linecode=3c_95_SAC_XC Length=0.122 Units=m
New Line.LINE1202 Bus1=1198 Bus2=1203 phases=3 Linecode=3c_95_SAC_XC Length=0.122 Units=m
New Line.LINE1203 Bus1=1200 Bus2=1204 phases=3 Linecode=3c_300_ASN Length=5.3712 Units=m
New Line.LINE1204 Bus1=1201 Bus2=1205 phases=3 Linecode=4c_300_SAC Length=0.33452 Units=m
New Line.LINE1205 Bus1=1202 Bus2=1206 phases=3 Linecode=3c_95_SAC_XC Length=0.107 Units=m
New Line.LINE1206 Bus1=1202 Bus2=1207 phases=3 Linecode=3c_95_SAC_XC Length=0.107 Units=m
New Line.LINE1207 Bus1=1204 Bus2=1208 phases=3 Linecode=3c_300_ASN Length=0.32965 Units=m
New Line.LINE1208 Bus1=1205 Bus2=1209 phases=3 Linecode=4c_300_SAC Length=1.9733 Units=m
New Line.LINE1209 Bus1=1205 Bus2=1210 phases=3 Linecode=4_PC Length=1.3468 Units=m
New Line.LINE1210 Bus1=1205 Bus2=1211 phases=3 Linecode=4c_.5_SAC Length=13.6807 Units=m
New Line.LINE1211 Bus1=1205 Bus2=1212 phases=3 Linecode=4c_.5_SAC Length=13.6807 Units=m
New Line.LINE1212 Bus1=1206 Bus2=1213 phases=3 Linecode=3c_95_SAC_XC Length=0.12193 Units=m
New Line.LINE1213 Bus1=1206 Bus2=1214 phases=3 Linecode=3c_95_SAC_XC Length=0.12193 Units=m
New Line.LINE1214 Bus1=1208 Bus2=1215 phases=3 Linecode=3c_300_ASN Length=0.24574 Units=m
New Line.LINE1215 Bus1=1209 Bus2=1216 phases=3 Linecode=4c_300_SAC Length=0.77734 Units=m
New Line.LINE1216 Bus1=1210 Bus2=1217 phases=3 Linecode=4_PC Length=0.72533 Units=m
New Line.LINE1217 Bus1=1211 Bus2=1218 phases=3 Linecode=4c_.5_SAC Length=6.1098 Units=m
New Line.LINE1218 Bus1=1211 Bus2=1219 phases=3 Linecode=4c_.5_SAC Length=6.1098 Units=m
New Line.LINE1219 Bus1=1213 Bus2=1220 phases=3 Linecode=3c_95_SAC_XC Length=0.0764 Units=m
New Line.LINE1220 Bus1=1213 Bus2=1221 phases=3 Linecode=3c_95_SAC_XC Length=0.0764 Units=m
New Line.LINE1221 Bus1=1215 Bus2=1222 phases=3 Linecode=3c_300_ASN Length=0.16105 Units=m
New Line.LINE1222 Bus1=1216 Bus2=1223 phases=3 Linecode=4c_300_SAC Length=0.52851 Units=m
New Line.LINE1223 Bus1=1217 Bus2=1224 phases=3 Linecode=4_PC Length=0.37797 Units=m
New Line.LINE1224 Bus1=1218 Bus2=1225 phases=3 Linecode=4c_.5_SAC Length=0.21789 Units=m
New Line.LINE1225 Bus1=1218 Bus2=1226 phases=3 Linecode=4c_.5_SAC Length=0.21789 Units=m
New Line.LINE1226 Bus1=1220 Bus2=1227 phases=3 Linecode=3c_95_SAC_XC Length=0.15061 Units=m
New Line.LINE1227 Bus1=1220 Bus2=1228 phases=3 Linecode=3c_95_SAC_XC Length=0.15061 Units=m
New Line.LINE1228 Bus1=1222 Bus2=1229 phases=3 Linecode=3c_300_ASN Length=0.17376 Units=m
New Line.LINE1229 Bus1=1223 Bus2=1230 phases=3 Linecode=4c_300_SAC Length=0.305 Units=m
New Line.LINE1230 Bus1=1224 Bus2=1231 phases=3 Linecode=4_PC Length=0.23131 Units=m
New Line.LINE1231 Bus1=1225 Bus2=1232 phases=3 Linecode=4_PC Length=0.27963 Units=m
New Line.LINE1232 Bus1=1227 Bus2=1233 phases=3 Linecode=3c_95_SAC_XC Length=0.21924 Units=m
New Line.LINE1233 Bus1=1227 Bus2=1234 phases=3 Linecode=3c_95_SAC_XC Length=0.21924 Units=m
New Line.LINE1234 Bus1=1229 Bus2=1235 phases=3 Linecode=3c_300_ASN Length=1.2629 Units=m
New Line.LINE1235 Bus1=1230 Bus2=1236 phases=3 Linecode=4c_300_SAC Length=0.88206 Units=m
New Line.LINE1236 Bus1=1231 Bus2=1237 phases=3 Linecode=2c_.007 Length=0.35715 Units=m
New Line.LINE1237 Bus1=1231 Bus2=1238 phases=3 Linecode=4_PC Length=0.19028 Units=m
New Line.LINE1238 Bus1=1232 Bus2=1239 phases=3 Linecode=4_PC Length=1.3434 Units=m
New Line.LINE1239 Bus1=1233 Bus2=1240 phases=3 Linecode=3c_95_SAC_XC Length=0.054084 Units=m
New Line.LINE1240 Bus1=1235 Bus2=1241 phases=3 Linecode=25_SAC_XC Length=36.3848 Units=m
New Line.LINE1241 Bus1=1235 Bus2=1242 phases=3 Linecode=25_SAC_XC Length=36.3848 Units=m
New Line.LINE1242 Bus1=1235 Bus2=1243 phases=3 Linecode=25_SAC_XC Length=36.3848 Units=m
New Line.LINE1243 Bus1=1235 Bus2=1244 phases=3 Linecode=25_SAC_XC Length=36.3848 Units=m
New Line.LINE1244 Bus1=1235 Bus2=1245 phases=3 Linecode=25_SAC_XC Length=36.3848 Units=m
New Line.LINE1245 Bus1=1235 Bus2=1246 phases=3 Linecode=25_SAC_XC Length=36.3848 Units=m
New Line.LINE1246 Bus1=1235 Bus2=1247 phases=3 Linecode=25_SAC_XC Length=36.3848 Units=m
New Line.LINE1247 Bus1=1235 Bus2=1248 phases=3 Linecode=25_SAC_XC Length=15.8156 Units=m
New Line.LINE1248 Bus1=1236 Bus2=1249 phases=3 Linecode=4c_300_SAC Length=0.86069 Units=m
New Line.LINE1249 Bus1=1237 Bus2=1250 phases=3 Linecode=2c_.007 Length=0.27583 Units=m
New Line.LINE1250 Bus1=1238 Bus2=1251 phases=3 Linecode=4_PC Length=0.1983 Units=m
New Line.LINE1251 Bus1=1239 Bus2=1252 phases=3 Linecode=4_PC Length=0.36447 Units=m
New Line.LINE1252 Bus1=1240 Bus2=1253 phases=3 Linecode=3c_95_SAC_XC Length=0.21833 Units=m
New Line.LINE1253 Bus1=1249 Bus2=1254 phases=3 Linecode=4c_300_SAC Length=1.0735 Units=m
New Line.LINE1254 Bus1=1250 Bus2=1255 phases=3 Linecode=2c_.007 Length=0.24052 Units=m
New Line.LINE1255 Bus1=1251 Bus2=1256 phases=3 Linecode=4_PC Length=0.13038 Units=m
New Line.LINE1256 Bus1=1252 Bus2=1257 phases=3 Linecode=4_PC Length=0.35786 Units=m
New Line.LINE1257 Bus1=1253 Bus2=1258 phases=3 Linecode=3c_95_SAC_XC Length=0.27601 Units=m
New Line.LINE1258 Bus1=1254 Bus2=1259 phases=3 Linecode=4c_300_SAC Length=0.27869 Units=m
New Line.LINE1259 Bus1=1255 Bus2=1260 phases=3 Linecode=2c_.007 Length=5.3091 Units=m
New Line.LINE1260 Bus1=1256 Bus2=1261 phases=3 Linecode=4_PC Length=0.071281 Units=m
New Line.LINE1261 Bus1=1257 Bus2=1262 phases=3 Linecode=4_PC Length=0.29624 Units=m
New Line.LINE1262 Bus1=1258 Bus2=1263 phases=3 Linecode=4c_.5 Length=3.2739 Units=m
New Line.LINE1263 Bus1=1258 Bus2=1264 phases=3 Linecode=4c_.5 Length=0.57254 Units=m
New Line.LINE1264 Bus1=1258 Bus2=1265 phases=3 Linecode=4c_.5 Length=3.2739 Units=m
New Line.LINE1265 Bus1=1258 Bus2=1266 phases=3 Linecode=4c_.5 Length=0.57254 Units=m
New Line.LINE1266 Bus1=1259 Bus2=1267 phases=3 Linecode=4c_300_SAC Length=1.2102 Units=m
New Line.LINE1267 Bus1=1260 Bus2=1268 phases=3 Linecode=2c_.007 Length=0.31619 Units=m
New Line.LINE1268 Bus1=1261 Bus2=1269 phases=3 Linecode=4_PC Length=0.149 Units=m
New Line.LINE1269 Bus1=1262 Bus2=1270 phases=3 Linecode=4_PC Length=0.56819 Units=m
New Line.LINE1270 Bus1=1263 Bus2=1271 phases=3 Linecode=4c_.5 Length=0.84183 Units=m
New Line.LINE1271 Bus1=1263 Bus2=1272 phases=3 Linecode=4c_.5 Length=0.84183 Units=m
New Line.LINE1272 Bus1=1264 Bus2=1273 phases=3 Linecode=4c_.5 Length=0.40579 Units=m
New Line.LINE1273 Bus1=1264 Bus2=1274 phases=3 Linecode=4c_.5 Length=0.40579 Units=m
New Line.LINE1274 Bus1=1267 Bus2=1275 phases=3 Linecode=4c_300_SAC Length=0.96223 Units=m
New Line.LINE1275 Bus1=1268 Bus2=1276 phases=3 Linecode=2c_.007 Length=0.32311 Units=m
New Line.LINE1276 Bus1=1269 Bus2=1277 phases=3 Linecode=4_PC Length=0.24816 Units=m
New Line.LINE1277 Bus1=1270 Bus2=1278 phases=3 Linecode=4_PC Length=0.61319 Units=m
New Line.LINE1278 Bus1=1271 Bus2=1279 phases=3 Linecode=4c_.5 Length=0.55172 Units=m
New Line.LINE1279 Bus1=1271 Bus2=1280 phases=3 Linecode=4c_.5 Length=0.55172 Units=m
New Line.LINE1280 Bus1=1273 Bus2=1281 phases=3 Linecode=4c_.5 Length=0.39897 Units=m
New Line.LINE1281 Bus1=1273 Bus2=1282 phases=3 Linecode=4c_.5 Length=0.39897 Units=m
New Line.LINE1282 Bus1=1275 Bus2=1283 phases=3 Linecode=4c_300_SAC Length=0.29833 Units=m
New Line.LINE1283 Bus1=1276 Bus2=1284 phases=3 Linecode=2c_.007 Length=0.19037 Units=m
New Line.LINE1284 Bus1=1277 Bus2=1285 phases=3 Linecode=4_PC Length=0.47213 Units=m
New Line.LINE1285 Bus1=1279 Bus2=1286 phases=3 Linecode=4c_.5 Length=0.405 Units=m
New Line.LINE1286 Bus1=1279 Bus2=1287 phases=3 Linecode=4c_.5 Length=0.405 Units=m
New Line.LINE1287 Bus1=1281 Bus2=1288 phases=3 Linecode=4c_.5 Length=0.3806 Units=m
New Line.LINE1288 Bus1=1281 Bus2=1289 phases=3 Linecode=4c_.5 Length=0.3806 Units=m
New Line.LINE1289 Bus1=1283 Bus2=1290 phases=3 Linecode=4c_.05 Length=7.376 Units=m
New Line.LINE1290 Bus1=1283 Bus2=1291 phases=3 Linecode=4c_.5 Length=1.2802 Units=m
New Line.LINE1291 Bus1=1283 Bus2=1292 phases=3 Linecode=4c_.5 Length=1.2802 Units=m
New Line.LINE1292 Bus1=1284 Bus2=1293 phases=3 Linecode=2c_.007 Length=0.17619 Units=m
New Line.LINE1293 Bus1=1285 Bus2=1294 phases=3 Linecode=4_PC Length=0.62426 Units=m
New Line.LINE1294 Bus1=1286 Bus2=1295 phases=3 Linecode=4c_.5 Length=0.46208 Units=m
New Line.LINE1295 Bus1=1286 Bus2=1296 phases=3 Linecode=4c_.5 Length=0.46208 Units=m
New Line.LINE1296 Bus1=1288 Bus2=1297 phases=3 Linecode=4c_.5 Length=0.34078 Units=m
New Line.LINE1297 Bus1=1288 Bus2=1298 phases=3 Linecode=4c_.5 Length=0.34078 Units=m
New Line.LINE1298 Bus1=1290 Bus2=1299 phases=3 Linecode=4c_.05 Length=2.5691 Units=m
New Line.LINE1299 Bus1=1291 Bus2=1300 phases=3 Linecode=4c_.5 Length=2.5782 Units=m
New Line.LINE1300 Bus1=1291 Bus2=1301 phases=3 Linecode=4c_.5 Length=2.5782 Units=m
New Line.LINE1301 Bus1=1293 Bus2=1302 phases=3 Linecode=2c_.007 Length=0.20494 Units=m
New Line.LINE1302 Bus1=1295 Bus2=1303 phases=3 Linecode=4c_.5 Length=0.238 Units=m
New Line.LINE1303 Bus1=1295 Bus2=1304 phases=3 Linecode=4c_.5 Length=0.238 Units=m
New Line.LINE1304 Bus1=1297 Bus2=1305 phases=3 Linecode=4c_.5 Length=0.35746 Units=m
New Line.LINE1305 Bus1=1297 Bus2=1306 phases=3 Linecode=4c_.5 Length=0.35746 Units=m
New Line.LINE1306 Bus1=1299 Bus2=1307 phases=3 Linecode=4c_.05 Length=0.20506 Units=m
New Line.LINE1307 Bus1=1300 Bus2=1308 phases=3 Linecode=4c_.5 Length=8.758 Units=m
New Line.LINE1308 Bus1=1300 Bus2=1309 phases=3 Linecode=4c_.5 Length=8.758 Units=m
New Line.LINE1309 Bus1=1302 Bus2=1310 phases=3 Linecode=4 Length=0.19226 Units=m
New Line.LINE1310 Bus1=1303 Bus2=1311 phases=3 Linecode=4c_.5 Length=0.143 Units=m
New Line.LINE1311 Bus1=1303 Bus2=1312 phases=3 Linecode=4c_.5 Length=0.143 Units=m
New Line.LINE1312 Bus1=1305 Bus2=1313 phases=3 Linecode=4c_.5 Length=0.51405 Units=m
New Line.LINE1313 Bus1=1305 Bus2=1314 phases=3 Linecode=4c_.5 Length=0.51405 Units=m
New Line.LINE1314 Bus1=1307 Bus2=1315 phases=3 Linecode=4c_.05 Length=0.25122 Units=m
New Line.LINE1315 Bus1=1308 Bus2=1316 phases=3 Linecode=4c_.5 Length=0.095001 Units=m
New Line.LINE1316 Bus1=1308 Bus2=1317 phases=3 Linecode=4c_.5 Length=0.095001 Units=m
New Line.LINE1317 Bus1=1310 Bus2=1318 phases=3 Linecode=4 Length=0.11314 Units=m
New Line.LINE1318 Bus1=1311 Bus2=1319 phases=3 Linecode=4c_.5 Length=6.3622 Units=m
New Line.LINE1319 Bus1=1311 Bus2=1320 phases=3 Linecode=4c_.5 Length=6.3622 Units=m
New Line.LINE1320 Bus1=1313 Bus2=1321 phases=3 Linecode=4c_.5 Length=0.4908 Units=m
New Line.LINE1321 Bus1=1313 Bus2=1322 phases=3 Linecode=4c_.5 Length=0.4908 Units=m
New Line.LINE1322 Bus1=1315 Bus2=1323 phases=3 Linecode=4c_.05 Length=0.22624 Units=m
New Line.LINE1323 Bus1=1316 Bus2=1324 phases=3 Linecode=4c_.5 Length=0.283 Units=m
New Line.LINE1324 Bus1=1316 Bus2=1325 phases=3 Linecode=4c_.5 Length=0.283 Units=m
New Line.LINE1325 Bus1=1318 Bus2=1326 phases=3 Linecode=4 Length=0.14389 Units=m
New Line.LINE1326 Bus1=1319 Bus2=1327 phases=3 Linecode=4c_.5 Length=11.3613 Units=m
New Line.LINE1327 Bus1=1319 Bus2=1328 phases=3 Linecode=4c_.5 Length=11.3613 Units=m
New Line.LINE1328 Bus1=1321 Bus2=1329 phases=3 Linecode=4c_.5 Length=0.397 Units=m
New Line.LINE1329 Bus1=1321 Bus2=1330 phases=3 Linecode=4c_.5 Length=0.397 Units=m
New Line.LINE1330 Bus1=1323 Bus2=1331 phases=3 Linecode=4c_.05 Length=0.16932 Units=m
New Line.LINE1331 Bus1=1324 Bus2=1332 phases=3 Linecode=4c_.5 Length=0.21324 Units=m
New Line.LINE1332 Bus1=1324 Bus2=1333 phases=3 Linecode=4c_.5 Length=0.21324 Units=m
New Line.LINE1333 Bus1=1326 Bus2=1334 phases=3 Linecode=4 Length=0.15037 Units=m
New Line.LINE1334 Bus1=1327 Bus2=1335 phases=3 Linecode=4c_.5 Length=0.25843 Units=m
New Line.LINE1335 Bus1=1327 Bus2=1336 phases=3 Linecode=4c_.5 Length=0.25843 Units=m
New Line.LINE1336 Bus1=1329 Bus2=1337 phases=3 Linecode=4c_.5 Length=0.47593 Units=m
New Line.LINE1337 Bus1=1329 Bus2=1338 phases=3 Linecode=4c_.5 Length=0.47593 Units=m
New Line.LINE1338 Bus1=1331 Bus2=1339 phases=3 Linecode=4c_.05 Length=0.17418 Units=m
New Line.LINE1339 Bus1=1332 Bus2=1340 phases=3 Linecode=4c_.5 Length=0.33755 Units=m
New Line.LINE1340 Bus1=1332 Bus2=1341 phases=3 Linecode=4c_.5 Length=0.33755 Units=m