New Load.LOAD11 Phases=1 Bus1=1102.2 kV=0.23 kW=1 PF=0.95
New Load.LOAD12 Phases=1 Bus1=1104.3 kV=0.23 kW=1 PF=0.95
New Load.LOAD13 Phases=1 Bus1=1141.3 kV=0.23 kW=1 PF=0.95
New Load.LOAD14 Phases=1 Bus1=1212.2 kV=0.23 kW=1 PF=0.95
New Load.LOAD15 Phases=1 Bus1=1217.1 kV=0.23 kW=1 PF=0.95
New Load.LOAD16 Phases=1 Bus1=1228.3 kV=0.23 kW=1 PF=0.95
New Load.LOAD17 Phases=1 Bus1=1232.2 kV=0.23 kW=1 PF=0.95
New Load.LOAD18 Phases=1 Bus1=1258.3 kV=0.23 kW=1 PF=0.95
New Load.LOAD19 Phases=1 Bus1=1267.2 kV=0.23 kW=1 PF=0.95
New Load.LOAD110 Phases=1 Bus1=1281.1 kV=0.23 kW=1 PF=0.95
New Load.LOAD111 Phases=1 Bus1=1296.1 kV=0.23 kW=1 PF=0.95
New Load.LOAD112 Phases=1 Bus1=1310.2 kV=0.23 kW=1 PF=0.95
New Load.LOAD113 Phases=1 Bus1=1352.3 kV=0.23 kW=1 PF=0.95
New Load.LOAD114 Phases=1 Bus1=1412.2 kV=0.23 kW=1 PF=0.95
New Load.LOAD115 Phases=1 Bus1=1433.3 kV=0.23 kW=1 PF=0.95
New Load.LOAD116 Phases=1 Bus1=1434.1 kV=0.23 kW=1 PF=0.95
New Load.LOAD117 Phases=1 Bus1=1441.2 kV=0.23 kW=1 PF=0.95
New Load.LOAD118 Phases=1 Bus1=1442.2 kV=0.23 kW=1 PF=0.95
New Load.LOAD119 Phases=1 Bus1=1446.3 kV=0.23 kW=1 PF=0.95
New Load.LOAD120 Phases=1 Bus1=1465.3 kV=0.23 kW=1 PF=0.95
New Load.LOAD121 Phases=1 Bus1=1481.2 kV=0.23 kW=1 PF=0.95
New Load.LOAD122 Phases=1 Bus1=1493.2 kV=0.23 kW=1 PF=0.95
New Load.LOAD123 Phases=1 Bus1=1507.2 kV=0.23 kW=1 PF=0.95
New Load.LOAD124 Phases=1 Bus1=1518.2 kV=0.23 kW=1 PF=0.95
New Load.LOAD125 Phases=1 Bus1=1531.2 kV=0.23 kW=1 PF=0.95
New Load.LOAD126 Phases=1 Bus1=1560.2 kV=0.23 kW=1 PF=0.95
New Load.LOAD127 Phases=1 Bus1=1590.1 kV=0.23 kW=1 PF=0.95
New Load.LOAD128 Phases=1 Bus1=1620.1 kV=0.23 kW=1 PF=0.95
New Load.LOAD129 Phases=1 Bus1=1679.3 kV=0.23 kW=1 PF=0.95
New Load.LOAD130 Phases=1 Bus1=1700.3 kV=0.23 kW=1 PF=0.95
New Load.LOAD131 Phases=1 Bus1=1702.2 kV=0.23 kW=1 PF=0.95
New Load.LOAD132 Phases=1 Bus1=1713.3 kV=0.23 kW=1 PF=0.95
New Load.LOAD133 Phases=1 Bus1=1748.2 kV=0.23 kW=1 PF=0.95
New Load.LOAD134 Phases=1 Bus1=1778.2 kV=0.23 kW=1 PF=0.95
New Load.LOAD135 Phases=1 Bus1=1797.3 kV=0.23 kW=1 PF=0.95
New Load.LOAD136 Phases=1 Bus1=1822.2 kV=0.23 kW=1 PF=0.95
New Load.LOAD137 Phases=1 Bus1=1823.2 kV=0.23 kW=1 PF=0.95
New Load.LOAD138 Phases=1 Bus1=1824.3 kV=0.23 kW=1 PF=0.95
New Load.LOAD139 Phases=1 Bus1=1840.3 kV=0.23 kW=1 PF=0.95
New Load.LOAD140 Phases=1 Bus1=1854.3 kV=0.23 kW=1 PF=0.95
New Load.LOAD141 Phases=1 Bus1=1855.2 kV=0.23 kW=1 PF=0.95
New Load.LOAD142 Phases=1 Bus1=1866.2 kV=0.23 kW=1 PF=0.95
New Load.LOAD143 Phases=1 Bus1=1873.2 kV=0.23 kW=1 PF=0.95
New Load.LOAD144 Phases=1 Bus1=1878.2 kV=0.23 kW=1 PF=0.95
New Load.LOAD145 Phases=1 Bus1=1890.1 kV=0.23 kW=1 PF=0.95
New Load.LOAD146 Phases=1 Bus1=1896.2 kV=0.23 kW=1 PF=0.95
New Load.LOAD147 Phases=1 Bus1=1897.2 kV=0.23 kW=1 PF=0.95
New Load.LOAD148 Phases=1 Bus1=1920.1 kV=0.23 kW=1 PF=0.95
New Load.LOAD149 Phases=1 Bus1=1921.1 kV=0.23 kW=1 PF=0.95
New Load.LOAD150 Phases=1 Bus1=1958.1 kV=0.23 kW=1 PF=0.95
New Load.LOAD151 Phases=1 Bus1=1968.1 kV=0.23 kW=1 PF=0.95
New Load.LOAD152 Phases=1 Bus1=11012.2 kV=0.23 kW=1 PF=0.95
New Load.LOAD153 Phases=1 Bus1=11025.3 kV=0.23 kW=1 PF=0.95
New Load.LOAD154 Phases=1 Bus1=11026.3 kV=0.23 kW=1 PF=0.95
New Load.LOAD155 Phases=1 Bus1=11045.1 kV=0.23 kW=1 PF=0.95
New Load.LOAD156 Phases=1 Bus1=11046.1 kV=0.23 kW=1 PF=0.95
New Load.LOAD157 Phases=1 Bus1=11070.2 kV=0.23 kW=1 PF=0.95
New Load.LOAD158 Phases=1 Bus1=11071.2 kV=0.23 kW=1 PF=0.95
New Load.LOAD159 Phases=1 Bus1=11114.1 kV=0.23 kW=1 PF=0.95
New Load.LOAD160 Phases=1 Bus1=11119.3 kV=0.23 kW=1 PF=0.95
New Load.LOAD161 Phases=1 Bus1=11120.3 kV=0.23 kW=1 PF=0.95
New Load.LOAD162 Phases=1 Bus1=11125.2 kV=0.23 kW=1 PF=0.95
New Load.LOAD163 Phases=1 Bus1=11126.2 kV=0.23 kW=1 PF=0.95
New Load.LOAD164 Phases=1 Bus1=11159.3 kV=0.23 kW=1 PF=0.95
New Load.LOAD165 Phases=1 Bus1=11165.1 kV=0.23 kW=1 PF=0.95
New Load.LOAD166 Phases=1 Bus1=11174.2 kV=0.23 kW=1 PF=0.95
New Load.LOAD167 Phases=1 Bus1=11192.1 kV=0.23 kW=1 PF=0.95
New Load.LOAD168 Phases=1 Bus1=11201.1 kV=0.23 kW=1 PF=0.95
New Load.LOAD169 Phases=1 Bus1=11211.2 kV=0.23 kW=1 PF=0.95
New Load.LOAD170 Phases=1 Bus1=11252.2 kV=0.23 kW=1 PF=0.95
New Load.LOAD171 Phases=1 Bus1=11253.2 kV=0.23 kW=1 PF=0.95
New Load.LOAD172 Phases=1 Bus1=11254.3 kV=0.23 kW=1 PF=0.95
New Load.LOAD173 Phases=1 Bus1=11255.3 kV=0.23 kW=1 PF=0.95
New Load.LOAD174 Phases=1 Bus1=11281.3 kV=0.23 kW=1 PF=0.95
New Load.LOAD175 Phases=1 Bus1=11282.3 kV=0.23 kW=1 PF=0.95
New Load.LOAD176 Phases=1 Bus1=11316.1 kV=0.23 kW=1 PF=0.95
New Load.LOAD177 Phases=1 Bus1=11317.1 kV=0.23 kW=1 PF=0.95
New Load.LOAD178 Phases=1 Bus1=11319.1 kV=0.23 kW=1 PF=0.95
New Load.LOAD179 Phases=1 Bus1=11334.2 kV=0.23 kW=1 PF=0.95
New Load.LOAD180 Phases=1 Bus1=11335.2 kV=0.23 kW=1 PF=0.95
New Load.LOAD181 Phases=1 Bus1=11344.1 kV=0.23 kW=1 PF=0.95
New Load.LOAD182 Phases=1 Bus1=11345.1 kV=0.23 kW=1 PF=0.95
New Load.LOAD183 Phases=1 Bus1=11355.3 kV=0.23 kW=1 PF=0.95
New Load.LOAD184 Phases=1 Bus1=11369.1 kV=0.23 kW=1 PF=0.95
New Load.LOAD185 Phases=1 Bus1=11371.2 kV=0.23 kW=1 PF=0.95
New Load.LOAD186 Phases=1 Bus1=11397.2 kV=0.23 kW=1 PF=0.95
New Load.LOAD187 Phases=1 Bus1=11413.2 kV=0.23 kW=1 PF=0.95
New Load.LOAD188 Phases=1 Bus1=11419.3 kV=0.23 kW=1 PF=0.95
New Load.LOAD189 Phases=1 Bus1=11420.3 kV=0.23 kW=1 PF=0.95
New Load.LOAD190 Phases=1 Bus1=11436.2 kV=0.23 kW=1 PF=0.95
New Load.LOAD191 Phases=1 Bus1=11449.2 kV=0.23 kW=1 PF=0.95
New Load.LOAD192 Phases=1 Bus1=11478.1 kV=0.23 kW=1 PF=0.95
New Load.LOAD193 Phases=1 Bus1=11486.2 kV=0.23 kW=1 PF=0.95
New Load.LOAD194 Phases=1 Bus1=11488.3 kV=0.23 kW=1 PF=0.95
New Load.LOAD195 Phases=1 Bus1=11504.1 kV=0.23 kW=1 PF=0.95
New Load.LOAD196 Phases=1 Bus1=11514.3 kV=0.23 kW=1 PF=0.95
New Load.LOAD197 Phases=1 Bus1=11515.3 kV=0.23 kW=1 PF=0.95
New Load.LOAD198 Phases=1 Bus1=11530.1 kV=0.23 kW=1 PF=0.95
New Load.LOAD199 Phases=1 Bus1=11552.2 kV=0.23 kW=1 PF=0.95
New Load.LOAD1100 Phases=1 Bus1=11601.2 kV=0.23 kW=1 PF=0.95
New Load.LOAD1101 Phases=1 Bus1=11611.3 kV=0.23 kW=1 PF=0.95
New Load.LOAD1102 Phases=1 Bus1=11626.2 kV=0.23 kW=1 PF=0.95
New Load.LOAD1103 Phases=1 Bus1=11652.3 kV=0.23 kW=1 PF=0.95
New Load.LOAD1104 Phases=1 Bus1=11678.2 kV=0.23 kW=1 PF=0.95
New Load.LOAD1105 Phases=1 Bus1=11681.1 kV=0.23 kW=1 PF=0.95
New Load.LOAD1106 Phases=1 Bus1=11685.1 kV=0.23 kW=1 PF=0.95
New Load.LOAD1107 Phases=1 Bus1=11687.1 kV=0.23 kW=1 PF=0.95
New Load.LOAD1108 Phases=1 Bus1=11689.3 kV=0.23 kW=1 PF=0.95
New Load.LOAD1109 Phases=1 Bus1=11695.1 kV=0.23 kW=1 PF=0.95
New Load.LOAD1110 Phases=1 Bus1=11703.3 kV=0.23 kW=1 PF=0.95
New Load.LOAD1111 Phases=1 Bus1=11709.3 kV=0.23 kW=1 PF=0.95
New Load.LOAD1112 Phases=1 Bus1=11726.3 kV=0.23 kW=1 PF=0.95
New Load.LOAD1113 Phases=1 Bus1=11741.1 kV=0.23 kW=1 PF=0.95
New Load.LOAD1114 Phases=1 Bus1=11764.1 kV=0.23 kW=1 PF=0.95
New Load.LOAD1115 Phases=1 Bus1=11782.1 kV=0.23 kW=1 PF=0.95
New Load.LOAD1116 Phases=1 Bus1=11797.2 kV=0.23 kW=1 PF=0.95
New Load.LOAD1117 Phases=1 Bus1=11808.3 kV=0.23 kW=1 PF=0.95
New Load.LOAD1118 Phases=1 Bus1=11811.1 kV=0.23 kW=1 PF=0.95
New Load.LOAD1119 Phases=1 Bus1=11894.1 kV=0.23 kW=1 PF=0.95
New Load.LOAD1120 Phases=1 Bus1=11902.3 kV=0.23 kW=1 PF=0.95
New Load.LOAD1121 Phases=1 Bus1=11929.1 kV=0.23 kW=1 PF=0.95
New Load.LOAD1122 Phases=1 Bus1=11939.3 kV=0.23 kW=1 PF=0.95
New Load.LOAD1123 Phases=1 Bus1=11944.1 kV=0.23 kW=1 PF=0.95
New Load.LOAD1124 Phases=1 Bus1=11969.3 kV=0.23 kW=1 PF=0.95
New Load.LOAD1125 Phases=1 Bus1=12019.2 kV=0.23 kW=1 PF=0.95
New Load.LOAD1126 Phases=1 Bus1=12021.2 kV=0.23 kW=1 PF=0.95
New Load.LOAD1127 Phases=1 Bus1=12110.3 kV=0.23 kW=1 PF=0.95
New Load.LOAD1128 Phases=1 Bus1=12157.1 kV=0.23 kW=1 PF=0.95
New Load.LOAD1129 Phases=1 Bus1=12163.3 kV=0.23 kW=1 PF=0.95
New Load.LOAD1130 Phases=1 Bus1=12183.2 kV=0.23 kW=1 PF=0.95
New Load.LOAD1131 Phases=1 Bus1=12190.1 kV=0.23 kW=1 PF=0.95
New Load.LOAD1132 Phases=1 Bus1=12192.2 kV=0.23 kW=1 PF=0.95
New Load.LOAD1133 Phases=1 Bus1=12194.2 kV=0.23 kW=1 PF=0.95
New Load.LOAD1134 Phases=1 Bus1=12216.2 kV=0.23 kW=1 PF=0.95
New Load.LOAD1135 Phases=1 Bus1=12243.2 kV=0.23 kW=1 PF=0.95
New Load.LOAD1136 Phases=1 Bus1=12279.3 kV=0.23 kW=1 PF=0.95
New Load.LOAD1137 Phases=1 Bus1=12280.3 kV=0.23 kW=1 PF=0.95
New Load.LOAD1138 Phases=1 Bus1=12288.2 kV=0.23 kW=1 PF=0.95
New Load.LOAD1139 Phases=1 Bus1=12298.3 kV=0.23 kW=1 PF=0.95
New Load.LOAD1140 Phases=1 Bus1=12300.1 kV=0.23 kW=1 PF=0.95
New Load.LOAD1141 Phases=1 Bus1=12306.3 kV=0.23 kW=1 PF=0.95
New Load.LOAD1142 Phases=1 Bus1=12328.2 kV=0.23 kW=1 PF=0.95
New Load.LOAD1143 Phases=1 Bus1=12330.1 kV=0.23 kW=1 PF=0.95
New Load.LOAD1144 Phases=1 Bus1=12369.3 kV=0.23 kW=1 PF=0.95
New Load.LOAD1145 Phases=1 Bus1=12371.1 kV=0.23 kW=1 PF=0.95
New Load.LOAD1146 Phases=1 Bus1=12379.2 kV=0.23 kW=1 PF=0.95
New Load.LOAD1147 Phases=1 Bus1=12429.1 kV=0.23 kW=1 PF=0.95
New Load.LOAD1148 Phases=1 Bus1=12464.3 kV=0.23 kW=1 PF=0.95
New Load.LOAD1149 Phases=1 Bus1=12465.3 kV=0.23 kW=1 PF=0.95
New Load.LOAD1150 Phases=1 Bus1=12469.1 kV=0.23 kW=1 PF=0.95
New Load.LOAD1151 Phases=1 Bus1=12471.1 kV=0.23 kW=1 PF=0.95
New Load.LOAD1152 Phases=1 Bus1=12472.2 kV=0.23 kW=1 PF=0.95
New Load.LOAD1153 Phases=1 Bus1=12483.2 kV=0.23 kW=1 PF=0.95
New Load.LOAD1154 Phases=1 Bus1=12494.1 kV=0.23 kW=1 PF=0.95
New Load.LOAD1155 Phases=1 Bus1=12513.2 kV=0.23 kW=1 PF=0.95
New Load.LOAD1156 Phases=1 Bus1=12517.2 kV=0.23 kW=1 PF=0.95
New Load.LOAD1157 Phases=1 Bus1=12535.2 kV=0.23 kW=1 PF=0.95
New Load.LOAD1158 Phases=1 Bus1=12548.3 kV=0.23 kW=1 PF=0.95
New Load.LOAD1159 Phases=1 Bus1=12575.1 kV=0.23 kW=1 PF=0.95
New Load.LOAD1160 Phases=1 Bus1=12577.2 kV=0.23 kW=1 PF=0.95
New Load.LOAD1161 Phases=1 Bus1=12586.2 kV=0.23 kW=1 PF=0.95
New Load.LOAD1162 Phases=1 Bus1=12596.3 kV=0.23 kW=1 PF=0.95
New Load.LOAD1163 Phases=1 Bus1=12598.1 kV=0.23 kW=1 PF=0.95
New Load.LOAD1164 Phases=1 Bus1=12603.2 kV=0.23 kW=1 PF=0.95
New Load.LOAD1165 Phases=1 Bus1=12615.2 kV=0.23 kW=1 PF=0.95
New Load.LOAD1166 Phases=1 Bus1=12633.3 kV=0.23 kW=1 PF=0.95
New Load.LOAD1167 Phases=1 Bus1=12654.1 kV=0.23 kW=1 PF=0.95
New Load.LOAD1168 Phases=1 Bus1=12672.2 kV=0.23 kW=1 PF=0.95
New Load.LOAD1169 Phases=1 Bus1=12683.1 kV=0.23 kW=1 PF=0.95
New Load.LOAD1170 Phases=1 Bus1=12712.2 kV=0.23 kW=1 PF=0.95
New Load.LOAD1171 Phases=1 Bus1=12724.2 kV=0.23 kW=1 PF=0.95
New Load.LOAD1172 Phases=1 Bus1=12729.1 kV=0.23 kW=1 PF=0.95
New Load.LOAD1173 Phases=1 Bus1=12753.3 kV=0.23 kW=1 PF=0.95
New Load.LOAD1174 Phases=1 Bus1=12754.1 kV=0.23 kW=1 PF=0.95
New Load.LOAD1175 Phases=1 Bus1=12755.2 kV=0.23 kW=1 PF=0.95
New Load.LOAD1176 Phases=1 Bus1=12757.3 kV=0.23 kW=1 PF=0.95
New Load.LOAD1177 Phases=1 Bus1=12759.1 kV=0.23 kW=1 PF=0.95
New Load.LOAD1178 Phases=1 Bus1=12781.2 kV=0.23 kW=1 PF=0.95
New Load.LOAD1179 Phases=1 Bus1=12785.3 kV=0.23 kW=1 PF=0.95
New Load.LOAD1180 Phases=1 Bus1=12787.3 kV=0.23 kW=1 PF=0.95
New Load.LOAD1181 Phases=1 Bus1=12792.3 kV=0.23 kW=1 PF=0.95
New Load.LOAD1182 Phases=1 Bus1=12803.3 kV=0.23 kW=1 PF=0.95
New Load.LOAD1183 Phases=1 Bus1=12804.2 kV=0.23 kW=1 PF=0.95
New Load.LOAD1184 Phases=1 Bus1=12815.3 kV=0.23 kW=1 PF=0.95
New Load.LOAD1185 Phases=1 Bus1=12816.2 kV=0.23 kW=1 PF=0.95
New Load.LOAD1186 Phases=1 Bus1=12824.1 kV=0.23 kW=1 PF=0.95
New Load.LOAD1187 Phases=1 Bus1=12831.2 kV=0.23 kW=1 PF=0.95
New Load.LOAD1188 Phases=1 Bus1=12837.3 kV=0.23 kW=1 PF=0.95
New Load.LOAD21 Phases=1 Bus1=230.1 kV=0.23 kW=1 PF=0.95
New Load.LOAD22 Phases=1 Bus1=2110.1 kV=0.23 kW=1 PF=0.95
New Load.LOAD23 Phases=1 Bus1=2118.3 kV=0.23 kW=1 PF=0.95
New Load.LOAD24 Phases=1 Bus1=2186.3 kV=0.23 kW=1 PF=0.95
New Load.LOAD25 Phases=1 Bus1=2193.1 kV=0.23 kW=1 PF=0.95
New Load.LOAD26 Phases=1 Bus1=2254.1 kV=0.23 kW=1 PF=0.95
New Load.LOAD27 Phases=1 Bus1=2259.3 kV=0.23 kW=1 PF=0.95
New Load.LOAD28 Phases=1 Bus1=2460.1 kV=0.23 kW=1 PF=0.95
New Load.LOAD31 Phases=1 Bus1=376.2 kV=0.23 kW=1 PF=0.95
New Load.LOAD32 Phases=1 Bus1=383.2 kV=0.23 kW=1 PF=0.95
New Load.LOAD33 Phases=1 Bus1=3103.3 kV=0.23 kW=1 PF=0.95
New Load.LOAD34 Phases=1 Bus1=3111.2 kV=0.23 kW=1 PF=0.95
New Load.LOAD35 Phases=1 Bus1=3163.1 kV=0.23 kW=1 PF=0.95
New Load.LOAD36 Phases=1 Bus1=3173.1 kV=0.23 kW=1 PF=0.95
New Load.LOAD37 Phases=1 Bus1=3200.3 kV=0.23 kW=1 PF=0.95
New Load.LOAD38 Phases=1 Bus1=3207.2 kV=0.23 kW=1 PF=0.95
New Load.LOAD39 Phases=1 Bus1=3258.1 kV=0.23 kW=1 PF=0.95
New Load.LOAD310 Phases=1 Bus1=3262.3 kV=0.23 kW=1 PF=0.95
New Load.LOAD311 Phases=1 Bus1=3267.1 kV=0.23 kW=1 PF=0.95
New Load.LOAD312 Phases=1 Bus1=3273.2 kV=0.23 kW=1 PF=0.95
New Load.LOAD313 Phases=1 Bus1=3297.2 kV=0.23 kW=1 PF=0.95
New Load.LOAD314 Phases=1 Bus1=3308.1 kV=0.23 kW=1 PF=0.95
New Load.LOAD315 Phases=1 Bus1=3309.1 kV=0.23 kW=1 PF=0.95
New Load.LOAD316 Phases=1 Bus1=3327.1 kV=0.23 kW=1 PF=0.95
New Load.LOAD317 Phases=1 Bus1=3341.1 kV=0.23 kW=1 PF=0.95
New Load.LOAD318 Phases=1 Bus1=3346.3 kV=0.23 kW=1 PF=0.95
New Load.LOAD319 Phases=1 Bus1=3347.3 kV=0.23 kW=1 PF=0.95
New Load.LOAD320 Phases=1 Bus1=3352.3 kV=0.23 kW=1 PF=0.95
New Load.LOAD321 Phases=1 Bus1=3353.3 kV=0.23 kW=1 PF=0.95
New Load.LOAD322 Phases=1 Bus1=3354.2 kV=0.23 kW=1 PF=0.95
New Load.LOAD323 Phases=1 Bus1=3363.2 kV=0.23 kW=1 PF=0.95
New Load.LOAD324 Phases=1 Bus1=3364.2 kV=0.23 kW=1 PF=0.95
New Load.LOAD325 Phases=1 Bus1=3374.1 kV=0.23 kW=1 PF=0.95
New Load.LOAD326 Phases=1 Bus1=3405.3 kV=0.23 kW=1 PF=0.95
New Load.LOAD327 Phases=1 Bus1=3445.2 kV=0.23 kW=1 PF=0.95
New Load.LOAD328 Phases=1 Bus1=3468.2 kV=0.23 kW=1 PF=0.95
New Load.LOAD329 Phases=1 Bus1=3475.2 kV=0.23 kW=1 PF=0.95
New Load.LOAD330 Phases=1 Bus1=3511.1 kV=0.23 kW=1 PF=0.95
New Load.LOAD331 Phases=1 Bus1=3520.2 kV=0.23 kW=1 PF=0.95
New Load.LOAD332 Phases=1 Bus1=3543.3 kV=0.23 kW=1 PF=0.95
New Load.LOAD333 Phases=1 Bus1=3544.2 kV=0.23 kW=1 PF=0.95
New Load.LOAD334 Phases=1 Bus1=3571.2 kV=0.23 kW=1 PF=0.95
New Load.LOAD335 Phases=1 Bus1=3572.3 kV=0.23 kW=1 PF=0.95
New Load.LOAD336 Phases=1 Bus1=3607.2 kV=0.23 kW=1 PF=0.95
New Load.LOAD337 Phases=1 Bus1=3614.2 kV=0.23 kW=1 PF=0.95
New Load.LOAD338 Phases=1 Bus1=3626.1 kV=0.23 kW=1 PF=0.95
New Load.LOAD339 Phases=1 Bus1=3638.3 kV=0.23 kW=1 PF=0.95
New Load.LOAD340 Phases=1 Bus1=3643.2 kV=0.23 kW=1 PF=0.95
New Load.LOAD341 Phases=1 Bus1=3644.2 kV=0.23 kW=1 PF=0.95
New Load.LOAD342 Phases=1 Bus1=3651.1 kV=0.23 kW=1 PF=0.95
New Load.LOAD343 Phases=1 Bus1=3655.1 kV=0.23 kW=1 PF=0.95
New Load.LOAD344 Phases=1 Bus1=3656.1 kV=0.23 kW=1 PF=0.95
New Load.LOAD345 Phases=1 Bus1=3734.3 kV=0.23 kW=1 PF=0.95
New Load.LOAD346 Phases=1 Bus1=3743.2 kV=0.23 kW=1 PF=0.95
New Load.LOAD347 Phases=1 Bus1=3744.1 kV=0.23 kW=1 PF=0.95
New Load.LOAD348 Phases=1 Bus1=3753.2 kV=0.23 kW=1 PF=0.95
New Load.LOAD349 Phases=1 Bus1=3768.1 kV=0.23 kW=1 PF=0.95
New Load.LOAD350 Phases=1 Bus1=3792.3 kV=0.23 kW=1 PF=0.95
New Load.LOAD351 Phases=1 Bus1=3793.2 kV=0.23 kW=1 PF=0.95
New Load.LOAD352 Phases=1 Bus1=3822.1 kV=0.23 kW=1 PF=0.95
New Load.LOAD353 Phases=1 Bus1=3850.3 kV=0.23 kW=1 PF=0.95
New Load.LOAD354 Phases=1 Bus1=3858.1 kV=0.23 kW=1 PF=0.95
New Load.LOAD355 Phases=1 Bus1=3887.3 kV=0.23 kW=1 PF=0.95
New Load.LOAD356 Phases=1 Bus1=3888.2 kV=0.23 kW=1 PF=0.95
New Load.LOAD357 Phases=1 Bus1=3923.2 kV=0.23 kW=1 PF=0.95
New Load.LOAD358 Phases=1 Bus1=3925.1 kV=0.23 kW=1 PF=0.95
New Load.LOAD359 Phases=1 Bus1=3936.3 kV=0.23 kW=1 PF=0.95
New Load.LOAD360 Phases=1 Bus1=3953.1 kV=0.23 kW=1 PF=0.95
New Load.LOAD361 Phases=1 Bus1=3984.2 kV=0.23 kW=1 PF=0.95
New Load.LOAD362 Phases=1 Bus1=3986.1 kV=0.23 kW=1 PF=0.95
New Load.LOAD363 Phases=1 Bus1=3989.2 kV=0.23 kW=1 PF=0.95
New Load.LOAD364 Phases=1 Bus1=3995.1 kV=0.23 kW=1 PF=0.95
New Load.LOAD365 Phases=1 Bus1=31027.3 kV=0.23 kW=1 PF=0.95
New Load.LOAD366 Phases=1 Bus1=31037.1 kV=0.23 kW=1 PF=0.95
New Load.LOAD367 Phases=1 Bus1=31039.2 kV=0.23 kW=1 PF=0.95
New Load.LOAD368 Phases=1 Bus1=31040.1 kV=0.23 kW=1 PF=0.95
New Load.LOAD369 Phases=1 Bus1=31062.2 kV=0.23 kW=1 PF=0.95
New Load.LOAD370 Phases=1 Bus1=31064.3 kV=0.23 kW=1 PF=0.95
New Load.LOAD371 Phases=1 Bus1=31071.3 kV=0.23 kW=1 PF=0.95
New Load.LOAD372 Phases=1 Bus1=31083.1 kV=0.23 kW=1 PF=0.95
New Load.LOAD373 Phases=1 Bus1=31099.3 kV=0.23 kW=1 PF=0.95
New Load.LOAD374 Phases=1 Bus1=31103.2 kV=0.23 kW=1 PF=0.95
New Load.LOAD375 Phases=1 Bus1=31122.3 kV=0.23 kW=1 PF=0.95
New Load.LOAD376 Phases=1 Bus1=31129.2 kV=0.23 kW=1 PF=0.95
New Load.LOAD377 Phases=1 Bus1=31131.1 kV=0.23 kW=1 PF=0.95
New Load.LOAD378 Phases=1 Bus1=31133.3 kV=0.23 kW=1 PF=0.95
New Load.LOAD41 Phases=1 Bus1=4104.3 kV=0.23 kW=1 PF=0.95
New Load.LOAD42 Phases=1 Bus1=4106.1 kV=0.23 kW=1 PF=0.95
New Load.LOAD43 Phases=1 Bus1=4114.1 kV=0.23 kW=1 PF=0.95
New Load.LOAD44 Phases=1 Bus1=4116.2 kV=0.23 kW=1 PF=0.95
New Load.LOAD45 Phases=1 Bus1=4173.1 kV=0.23 kW=1 PF=0.95
New Load.LOAD46 Phases=1 Bus1=4194.3 kV=0.23 kW=1 PF=0.95
New Load.LOAD47 Phases=1 Bus1=4196.1 kV=0.23 kW=1 PF=0.95
New Load.LOAD48 Phases=1 Bus1=4200.1 kV=0.23 kW=1 PF=0.95
New Load.LOAD49 Phases=1 Bus1=4215.2 kV=0.23 kW=1 PF=0.95
New Load.LOAD410 Phases=1 Bus1=4247.3 kV=0.23 kW=1 PF=0.95
New Load.LOAD411 Phases=1 Bus1=4348.1 kV=0.23 kW=1 PF=0.95
New Load.LOAD412 Phases=1 Bus1=4366.1 kV=0.23 kW=1 PF=0.95
New Load.LOAD413 Phases=1 Bus1=4367.1 kV=0.23 kW=1 PF=0.95
New Load.LOAD414 Phases=1 Bus1=4368.1 kV=0.23 kW=1 PF=0.95
New Load.LOAD415 Phases=1 Bus1=4369.1 kV=0.23 kW=1 PF=0.95
New Load.LOAD416 Phases=1 Bus1=4378.2 kV=0.23 kW=1 PF=0.95
New Load.LOAD417 Phases=1 Bus1=4382.3 kV=0.23 kW=1 PF=0.95
New Load.LOAD418 Phases=1 Bus1=4383.2 kV=0.23 kW=1 PF=0.95
New Load.LOAD419 Phases=1 Bus1=4385.1 kV=0.23 kW=1 PF=0.95
New Load.LOAD420 Phases=1 Bus1=4405.1 kV=0.23 kW=1 PF=0.95
New Load.LOAD421 Phases=1 Bus1=4410.3 kV=0.23 kW=1 PF=0.95
New Load.LOAD422 Phases=1 Bus1=4411.3 kV=0.23 kW=1 PF=0.95
New Load.LOAD423 Phases=1 Bus1=4412.3 kV=0.23 kW=1 PF=0.95
New Load.LOAD424 Phases=1 Bus1=4413.3 kV=0.23 kW=1 PF=0.95
New Load.LOAD425 Phases=1 Bus1=4414.3 kV=0.23 kW=1 PF=0.95
New Load.LOAD426 Phases=1 Bus1=4452.1 kV=0.23 kW=1 PF=0.95
New Load.LOAD427 Phases=1 Bus1=4461.1 kV=0.23 kW=1 PF=0.95
New Load.LOAD428 Phases=1 Bus1=4462.1 kV=0.23 kW=1 PF=0.95
New Load.LOAD429 Phases=1 Bus1=4478.2 kV=0.23 kW=1 PF=0.95
New Load.LOAD430 Phases=1 Bus1=4497.3 kV=0.23 kW=1 PF=0.95
New Load.LOAD431 Phases=1 Bus1=4508.3 kV=0.23 kW=1 PF=0.95
New Load.LOAD432 Phases=1 Bus1=4527.2 kV=0.23 kW=1 PF=0.95
New Load.LOAD433 Phases=1 Bus1=4560.2 kV=0.23 kW=1 PF=0.95
New Load.LOAD434 Phases=1 Bus1=4564.3 kV=0.23 kW=1 PF=0.95
New Load.LOAD435 Phases=1 Bus1=4566.2 kV=0.23 kW=1 PF=0.95
New Load.LOAD436 Phases=1 Bus1=4567.2 kV=0.23 kW=1 PF=0.95
New Load.LOAD437 Phases=1 Bus1=4581.2 kV=0.23 kW=1 PF=0.95
New Load.LOAD438 Phases=1 Bus1=4610.3 kV=0.23 kW=1 PF=0.95
New Load.LOAD439 Phases=1 Bus1=4632.2 kV=0.23 kW=1 PF=0.95
New Load.LOAD440 Phases=1 Bus1=4666.1 kV=0.23 kW=1 PF=0.95
New Load.LOAD441 Phases=1 Bus1=4667.1 kV=0.23 kW=1 PF=0.95
New Load.LOAD442 Phases=1 Bus1=4684.3 kV=0.23 kW=1 PF=0.95
New Load.LOAD443 Phases=1 Bus1=4691.1 kV=0.23 kW=1 PF=0.95
New Load.LOAD444 Phases=1 Bus1=4707.2 kV=0.23 kW=1 PF=0.95
New Load.LOAD445 Phases=1 Bus1=4741.1 kV=0.23 kW=1 PF=0.95
New Load.LOAD446 Phases=1 Bus1=4743.2 kV=0.23 kW=1 PF=0.95
New Load.LOAD447 Phases=1 Bus1=4752.3 kV=0.23 kW=1 PF=0.95
New Load.LOAD448 Phases=1 Bus1=4771.1 kV=0.23 kW=1 PF=0.95
New Load.LOAD449 Phases=1 Bus1=4785.2 kV=0.23 kW=1 PF=0.95
New Load.LOAD450 Phases=1 Bus1=4798.1 kV=0.23 kW=1 PF=0.95
New Load.LOAD451 Phases=1 Bus1=4815.1 kV=0.23 kW=1 PF=0.95
New Load.LOAD452 Phases=1 Bus1=4816.2 kV=0.23 kW=1 PF=0.95
New Load.LOAD453 Phases=1 Bus1=4817.2 kV=0.23 kW=1 PF=0.95
New Load.LOAD454 Phases=1 Bus1=4829.1 kV=0.23 kW=1 PF=0.95
New Load.LOAD455 Phases=1 Bus1=4853.2 kV=0.23 kW=1 PF=0.95
New Load.LOAD456 Phases=1 Bus1=4873.3 kV=0.23 kW=1 PF=0.95
New Load.LOAD457 Phases=1 Bus1=4878.3 kV=0.23 kW=1 PF=0.95
New Load.LOAD458 Phases=1 Bus1=4929.1 kV=0.23 kW=1 PF=0.95
New Load.LOAD459 Phases=1 Bus1=4932.3 kV=0.23 kW=1 PF=0.95
New Load.LOAD460 Phases=1 Bus1=4933.3 kV=0.23 kW=1 PF=0.95
New Load.LOAD461 Phases=1 Bus1=4943.1 kV=0.23 kW=1 PF=0.95
New Load.LOAD462 Phases=1 Bus1=4956.3 kV=0.23 kW=1 PF=0.95
New Load.LOAD463 Phases=1 Bus1=4957.3 kV=0.23 kW=1 PF=0.95
New Load.LOAD464 Phases=1 Bus1=4961.1 kV=0.23 kW=1 PF=0.95
New Load.LOAD465 Phases=1 Bus1=4962.1 kV=0.23 kW=1 PF=0.95
New Load.LOAD466 Phases=1 Bus1=41000.1 kV=0.23 kW=1 PF=0.95
New Load.LOAD467 Phases=1 Bus1=41020.1 kV=0.23 kW=1 PF=0.95
New Load.LOAD468 Phases=1 Bus1=41021.1 kV=0.23 kW=1 PF=0.95
New Load.LOAD469 Phases=1 Bus1=41024.3 kV=0.23 kW=1 PF=0.95
New Load.LOAD470 Phases=1 Bus1=41055.1 kV=0.23 kW=1 PF=0.95
New Load.LOAD471 Phases=1 Bus1=41077.3 kV=0.23 kW=1 PF=0.95
New Load.LOAD472 Phases=1 Bus1=41090.3 kV=0.23 kW=1 PF=0.95
New Load.LOAD473 Phases=1 Bus1=41110.2 kV=0.23 kW=1 PF=0.95
New Load.LOAD474 Phases=1 Bus1=41111.2 kV=0.23 kW=1 PF=0.95
New Load.LOAD475 Phases=1 Bus1=41140.1 kV=0.23 kW=1 PF=0.95
New Load.LOAD476 Phases=1 Bus1=41170.1 kV=0.23 kW=1 PF=0.95
New Load.LOAD477 Phases=1 Bus1=41204.2 kV=0.23 kW=1 PF=0.95
New Load.LOAD478 Phases=1 Bus1=41206.3 kV=0.23 kW=1 PF=0.95
New Load.LOAD479 Phases=1 Bus1=41210.3 kV=0.23 kW=1 PF=0.95
New Load.LOAD480 Phases=1 Bus1=41226.3 kV=0.23 kW=1 PF=0.95
New Load.LOAD481 Phases=1 Bus1=41238.3 kV=0.23 kW=1 PF=0.95
New Load.LOAD482 Phases=1 Bus1=41239.3 kV=0.23 kW=1 PF=0.95
New Load.LOAD483 Phases=1 Bus1=41285.2 kV=0.23 kW=1 PF=0.95
New Load.LOAD484 Phases=1 Bus1=41292.1 kV=0.23 kW=1 PF=0.95
New Load.LOAD485 Phases=1 Bus1=41296.3 kV=0.23 kW=1 PF=0.95
New Load.LOAD486 Phases=1 Bus1=41300.2 kV=0.23 kW=1 PF=0.95
New Load.LOAD487 Phases=1 Bus1=41331.1 kV=0.23 kW=1 PF=0.95
New Load.LOAD488 Phases=1 Bus1=41335.3 kV=0.23 kW=1 PF=0.95
New Load.LOAD489 Phases=1 Bus1=41366.2 kV=0.23 kW=1 PF=0.95
New Load.LOAD490 Phases=1 Bus1=41372.3 kV=0.23 kW=1 PF=0.95
New Load.LOAD491 Phases=1 Bus1=41395.1 kV=0.23 kW=1 PF=0.95
New Load.LOAD492 Phases=1 Bus1=41397.2 kV=0.23 kW=1 PF=0.95
New Load.LOAD493 Phases=1 Bus1=41408.3 kV=0.23 kW=1 PF=0.95
New Load.LOAD494 Phases=1 Bus1=41418.2 kV=0.23 kW=1 PF=0.95
New Load.LOAD495 Phases=1 Bus1=41429.1 kV=0.23 kW=1 PF=0.95
New Load.LOAD496 Phases=1 Bus1=41438.3 kV=0.23 kW=1 PF=0.95
New Load.LOAD497 Phases=1 Bus1=41441.3 kV=0.23 kW=1 PF=0.95
New Load.LOAD498 Phases=1 Bus1=41443.2 kV=0.23 kW=1 PF=0.95
New Load.LOAD499 Phases=1 Bus1=41465.1 kV=0.23 kW=1 PF=0.95
New Load.LOAD4100 Phases=1 Bus1=41479.2 kV=0.23 kW=1 PF=0.95
New Load.LOAD4101 Phases=1 Bus1=41489.1 kV=0.23 kW=1 PF=0.95
New Load.LOAD4102 Phases=1 Bus1=41491.2 kV=0.23 kW=1 PF=0.95
New Load.LOAD4103 Phases=1 Bus1=41525.1 kV=0.23 kW=1 PF=0.95
New Load.LOAD4104 Phases=1 Bus1=41528.2 kV=0.23 kW=1 PF=0.95
New Load.LOAD4105 Phases=1 Bus1=41531.2 kV=0.23 kW=1 PF=0.95
New Load.LOAD4106 Phases=1 Bus1=41534.1 kV=0.23 kW=1 PF=0.95
New Load.LOAD51 Phases=1 Bus1=578.2 kV=0.23 kW=1 PF=0.95
New Load.LOAD52 Phases=1 Bus1=587.2 kV=0.23 kW=1 PF=0.95
New Load.LOAD53 Phases=1 Bus1=596.1 kV=0.23 kW=1 PF=0.95
New Load.LOAD54 Phases=1 Bus1=5112.3 kV=0.23 kW=1 PF=0.95
New Load.LOAD55 Phases=1 Bus1=5139.1 kV=0.23 kW=1 PF=0.95
New Load.LOAD56 Phases=1 Bus1=5159.2 kV=0.23 kW=1 PF=0.95
New Load.LOAD57 Phases=1 Bus1=5174.2 kV=0.23 kW=1 PF=0.95
New Load.LOAD58 Phases=1 Bus1=5196.3 kV=0.23 kW=1 PF=0.95
New Load.LOAD59 Phases=1 Bus1=5208.1 kV=0.23 kW=1 PF=0.95
New Load.LOAD510 Phases=1 Bus1=5230.2 kV=0.23 kW=1 PF=0.95
New Load.LOAD511 Phases=1 Bus1=5237.3 kV=0.23 kW=1 PF=0.95
New Load.LOAD512 Phases=1 Bus1=5288.1 kV=0.23 kW=1 PF=0.95
New Load.LOAD513 Phases=1 Bus1=5316.1 kV=0.23 kW=1 PF=0.95
New Load.LOAD514 Phases=1 Bus1=5361.2 kV=0.23 kW=1 PF=0.95
New Load.LOAD515 Phases=1 Bus1=5382.3 kV=0.23 kW=1 PF=0.95
New Load.LOAD516 Phases=1 Bus1=5384.1 kV=0.23 kW=1 PF=0.95
New Load.LOAD517 Phases=1 Bus1=5391.3 kV=0.23 kW=1 PF=0.95
New Load.LOAD518 Phases=1 Bus1=5396.3 kV=0.23 kW=1 PF=0.95
New Load.LOAD519 Phases=1 Bus1=5401.3 kV=0.23 kW=1 PF=0.95
New Load.LOAD520 Phases=1 Bus1=5430.3 kV=0.23 kW=1 PF=0.95
New Load.LOAD521 Phases=1 Bus1=5431.2 kV=0.23 kW=1 PF=0.95
New Load.LOAD522 Phases=1 Bus1=5465.1 kV=0.23 kW=1 PF=0.95
New Load.LOAD523 Phases=1 Bus1=5475.3 kV=0.23 kW=1 PF=0.95
New Load.LOAD524 Phases=1 Bus1=5494.2 kV=0.23 kW=1 PF=0.95
New Load.LOAD525 Phases=1 Bus1=5500.2 kV=0.23 kW=1 PF=0.95
New Load.LOAD526 Phases=1 Bus1=5527.1 kV=0.23 kW=1 PF=0.95
New Load.LOAD527 Phases=1 Bus1=5542.2 kV=0.23 kW=1 PF=0.95
New Load.LOAD528 Phases=1 Bus1=5562.1 kV=0.23 kW=1 PF=0.95
New Load.LOAD529 Phases=1 Bus1=5571.2 kV=0.23 kW=1 PF=0.95
New Load.LOAD530 Phases=1 Bus1=5655.1 kV=0.23 kW=1 PF=0.95
New Load.LOAD531 Phases=1 Bus1=5657.3 kV=0.23 kW=1 PF=0.95
New Load.LOAD532 Phases=1 Bus1=5672.2 kV=0.23 kW=1 PF=0.95
New Load.LOAD533 Phases=1 Bus1=5696.2 kV=0.23 kW=1 PF=0.95
New Load.LOAD534 Phases=1 Bus1=5733.1 kV=0.23 kW=1 PF=0.95
New Load.LOAD535 Phases=1 Bus1=5742.3 kV=0.23 kW=1 PF=0.95
New Load.LOAD536 Phases=1 Bus1=5766.3 kV=0.23 kW=1 PF=0.95
New Load.LOAD537 Phases=1 Bus1=5802.3 kV=0.23 kW=1 PF=0.95
New Load.LOAD538 Phases=1 Bus1=5808.1 kV=0.23 kW=1 PF=0.95
New Load.LOAD539 Phases=1 Bus1=5809.3 kV=0.23 kW=1 PF=0.95
New Load.LOAD540 Phases=1 Bus1=5825.3 kV=0.23 kW=1 PF=0.95
New Load.LOAD541 Phases=1 Bus1=5836.1 kV=0.23 kW=1 PF=0.95
New Load.LOAD542 Phases=1 Bus1=5840.1 kV=0.23 kW=1 PF=0.95
New Load.LOAD543 Phases=1 Bus1=5860.1 kV=0.23 kW=1 PF=0.95
New Load.LOAD544 Phases=1 Bus1=5865.3 kV=0.23 kW=1 PF=0.95
New Load.LOAD545 Phases=1 Bus1=5888.2 kV=0.23 kW=1 PF=0.95
New Load.LOAD546 Phases=1 Bus1=5925.3 kV=0.23 kW=1 PF=0.95
New Load.LOAD547 Phases=1 Bus1=5950.1 kV=0.23 kW=1 PF=0.95
New Load.LOAD548 Phases=1 Bus1=5962.2 kV=0.23 kW=1 PF=0.95
New Load.LOAD549 Phases=1 Bus1=5979.2 kV=0.23 kW=1 PF=0.95
New Load.LOAD550 Phases=1 Bus1=51004.1 kV=0.23 kW=1 PF=0.95
New Load.LOAD551 Phases=1 Bus1=51030.3 kV=0.23 kW=1 PF=0.95
New Load.LOAD552 Phases=1 Bus1=51056.3 kV=0.23 kW=1 PF=0.95
New Load.LOAD553 Phases=1 Bus1=51071.2 kV=0.23 kW=1 PF=0.95
New Load.LOAD554 Phases=1 Bus1=51087.3 kV=0.23 kW=1 PF=0.95
New Load.LOAD555 Phases=1 Bus1=51111.2 kV=0.23 kW=1 PF=0.95
New Load.LOAD556 Phases=1 Bus1=51144.1 kV=0.23 kW=1 PF=0.95
New Load.LOAD557 Phases=1 Bus1=51146.3 kV=0.23 kW=1 PF=0.95
New Load.LOAD558 Phases=1 Bus1=51168.2 kV=0.23 kW=1 PF=0.95
New Load.LOAD559 Phases=1 Bus1=51171.1 kV=0.23 kW=1 PF=0.95
New Load.LOAD560 Phases=1 Bus1=51177.1 kV=0.23 kW=1 PF=0.95
New Load.LOAD561 Phases=1 Bus1=51183.1 kV=0.23 kW=1 PF=0.95
New Load.LOAD562 Phases=1 Bus1=51190.2 kV=0.23 kW=1 PF=0.95
New Load.LOAD563 Phases=1 Bus1=51194.2 kV=0.23 kW=1 PF=0.95
New Load.LOAD564 Phases=1 Bus1=51218.1 kV=0.23 kW=1 PF=0.95
New Load.LOAD565 Phases=1 Bus1=51228.2 kV=0.23 kW=1 PF=0.95
New Load.LOAD566 Phases=1 Bus1=51254.1 kV=0.23 kW=1 PF=0.95
New Load.LOAD567 Phases=1 Bus1=51256.2 kV=0.23 kW=1 PF=0.95
New Load.LOAD568 Phases=1 Bus1=51276.1 kV=0.23 kW=1 PF=0.95
New Load.LOAD569 Phases=1 Bus1=51278.2 kV=0.23 kW=1 PF=0.95
New Load.LOAD570 Phases=1 Bus1=51284.3 kV=0.23 kW=1 PF=0.95
New Load.LOAD571 Phases=1 Bus1=51301.2 kV=0.23 kW=1 PF=0.95
New Load.LOAD572 Phases=1 Bus1=51309.3 kV=0.23 kW=1 PF=0.95
New Load.LOAD573 Phases=1 Bus1=51367.2 kV=0.23 kW=1 PF=0.95
New Load.LOAD574 Phases=1 Bus1=51397.1 kV=0.23 kW=1 PF=0.95
New Load.LOAD575 Phases=1 Bus1=51405.3 kV=0.23 kW=1 PF=0.95
New Load.LOAD576 Phases=1 Bus1=51425.3 kV=0.23 kW=1 PF=0.95
New Load.LOAD577 Phases=1 Bus1=51450.2 kV=0.23 kW=1 PF=0.95
New Load.LOAD578 Phases=1 Bus1=51459.1 kV=0.23 kW=1 PF=0.95
New Load.LOAD579 Phases=1 Bus1=51471.3 kV=0.23 kW=1 PF=0.95
New Load.LOAD580 Phases=1 Bus1=51483.3 kV=0.23 kW=1 PF=0.95
New Load.LOAD581 Phases=1 Bus1=51505.1 kV=0.23 kW=1 PF=0.95
New Load.LOAD582 Phases=1 Bus1=51517.3 kV=0.23 kW=1 PF=0.95
New Load.LOAD583 Phases=1 Bus1=51520.1 kV=0.23 kW=1 PF=0.95
New Load.LOAD584 Phases=1 Bus1=51532.2 kV=0.23 kW=1 PF=0.95
New Load.LOAD585 Phases=1 Bus1=51575.1 kV=0.23 kW=1 PF=0.95
New Load.LOAD586 Phases=1 Bus1=51620.3 kV=0.23 kW=1 PF=0.95
New Load.LOAD587 Phases=1 Bus1=51621.3 kV=0.23 kW=1 PF=0.95
New Load.LOAD588 Phases=1 Bus1=51628.2 kV=0.23 kW=1 PF=0.95
New Load.LOAD589 Phases=1 Bus1=51634.3 kV=0.23 kW=1 PF=0.95
New Load.LOAD590 Phases=1 Bus1=51637.2 kV=0.23 kW=1 PF=0.95
New Load.LOAD591 Phases=1 Bus1=51669.3 kV=0.23 kW=1 PF=0.95
New Load.LOAD592 Phases=1 Bus1=51676.1 kV=0.23 kW=1 PF=0.95
New Load.LOAD593 Phases=1 Bus1=51677.2 kV=0.23 kW=1 PF=0.95
New Load.LOAD594 Phases=1 Bus1=51685.2 kV=0.23 kW=1 PF=0.95
New Load.LOAD595 Phases=1 Bus1=51699.3 kV=0.23 kW=1 PF=0.95
New Load.LOAD596 Phases=1 Bus1=51720.1 kV=0.23 kW=1 PF=0.95
New Load.LOAD597 Phases=1 Bus1=51742.2 kV=0.23 kW=1 PF=0.95
New Load.LOAD598 Phases=1 Bus1=51743.3 kV=0.23 kW=1 PF=0.95
New Load.LOAD599 Phases=1 Bus1=51765.3 kV=0.23 kW=1 PF=0.95
New Load.LOAD5100 Phases=1 Bus1=51773.2 kV=0.23 kW=1 PF=0.95
New Load.LOAD5101 Phases=1 Bus1=51811.1 kV=0.23 kW=1 PF=0.95
New Load.LOAD5102 Phases=1 Bus1=51831.2 kV=0.23 kW=1 PF=0.95
New Load.LOAD5103 Phases=1 Bus1=51846.3 kV=0.23 kW=1 PF=0.95
New Load.LOAD5104 Phases=1 Bus1=51854.1 kV=0.23 kW=1 PF=0.95
New Load.LOAD5105 Phases=1 Bus1=51857.2 kV=0.23 kW=1 PF=0.95
New Load.LOAD5106 Phases=1 Bus1=51875.1 kV=0.23 kW=1 PF=0.95
New Load.LOAD5107 Phases=1 Bus1=51879.3 kV=0.23 kW=1 PF=0.95
New Load.LOAD5108 Phases=1 Bus1=51890.1 kV=0.23 kW=1 PF=0.95
New Load.LOAD5109 Phases=1 Bus1=51898.1 kV=0.23 kW=1 PF=0.95
New Load.LOAD5110 Phases=1 Bus1=51914.1 kV=0.23 kW=1 PF=0.95
New Load.LOAD5111 Phases=1 Bus1=51928.2 kV=0.23 kW=1 PF=0.95
New Load.LOAD5112 Phases=1 Bus1=51936.1 kV=0.23 kW=1 PF=0.95
New Load.LOAD5113 Phases=1 Bus1=51958.1 kV=0.23 kW=1 PF=0.95
New Load.LOAD5114 Phases=1 Bus1=51963.2 kV=0.23 kW=1 PF=0.95
New Load.LOAD5115 Phases=1 Bus1=52034.3 kV=0.23 kW=1 PF=0.95
New Load.LOAD5116 Phases=1 Bus1=52124.2 kV=0.23 kW=1 PF=0.95
New Load.LOAD5117 Phases=1 Bus1=52169.1 kV=0.23 kW=1 PF=0.95
New Load.LOAD5118 Phases=1 Bus1=52180.3 kV=0.23 kW=1 PF=0.95
New Load.LOAD5119 Phases=1 Bus1=52232.1 kV=0.23 kW=1 PF=0.95
New Load.LOAD5120 Phases=1 Bus1=52258.1 kV=0.23 kW=1 PF=0.95
New Load.LOAD5121 Phases=1 Bus1=52260.2 kV=0.23 kW=1 PF=0.95
New Load.LOAD5122 Phases=1 Bus1=52289.2 kV=0.23 kW=1 PF=0.95