New Line.LINE177_1 Bus1=177_1 Bus2=177_2 phases=3 Linecode=3c_300_SAC_XC Length=1.1479 Units=m
New Line.LINE177_2 Bus1=177_2 Bus2=177_3 phases=3 Linecode=3c_300_SAC_XC Length=0.12588 Units=m
New Line.LINE177_3 Bus1=177_3 Bus2=177_4 phases=3 Linecode=3c_300_SAC_XC Length=0.12625 Units=m
New Line.LINE177_4 Bus1=177_4 Bus2=177_5 phases=3 Linecode=3c_300_SAC_XC Length=0.12615 Units=m
New Line.LINE177_5 Bus1=177_5 Bus2=177_6 phases=3 Linecode=3c_300_SAC_XC Length=0.12681 Units=m
New Line.LINE177_6 Bus1=177_6 Bus2=177_7 phases=3 Linecode=3c_300_SAC_XC Length=0.12627 Units=m
New Line.LINE177_7 Bus1=177_7 Bus2=177_8 phases=3 Linecode=3c_300_SAC_XC Length=0.1255 Units=m
New Line.LINE177_8 Bus1=177_8 Bus2=177_9 phases=3 Linecode=3c_300_SAC_XC Length=0.12744 Units=m
New Line.LINE177_9 Bus1=177_9 Bus2=177_10 phases=3 Linecode=3c_300_SAC_XC Length=0.12613 Units=m
New Line.LINE177_10 Bus1=177_10 Bus2=177_11 phases=3 Linecode=3c_300_SAC_XC Length=0.5946 Units=m
New Line.LINE177_11 Bus1=177_11 Bus2=177_12 phases=3 Linecode=3c_300_SAC_XC Length=2.5692 Units=m
New Line.LINE177_12 Bus1=177_12 Bus2=177_13 phases=3 Linecode=3c_300_SAC_XC Length=0.44233 Units=m
New Line.LINE177_13 Bus1=177_13 Bus2=177_14 phases=3 Linecode=3c_300_SAC_XC Length=2.2336 Units=m
New Line.LINE177_14 Bus1=177_14 Bus2=177_15 phases=3 Linecode=3c_300_SAC_XC Length=0.043417 Units=m
New Line.LINE177_15 Bus1=177_15 Bus2=177_16 phases=3 Linecode=3c_300_SAC_XC Length=0.044822 Units=m
New Line.LINE177_16 Bus1=177_16 Bus2=177_17 phases=3 Linecode=3c_300_SAC_XC Length=0.044045 Units=m
New Line.LINE177_17 Bus1=177_17 Bus2=177_18 phases=3 Linecode=3c_300_SAC_XC Length=0.044778 Units=m
New Line.LINE177_18 Bus1=177_18 Bus2=177_19 phases=3 Linecode=3c_300_SAC_XC Length=0.044271 Units=m
New Line.LINE177_19 Bus1=177_19 Bus2=177_20 phases=3 Linecode=3c_300_SAC_XC Length=0.043417 Units=m
New Line.LINE177_20 Bus1=177_20 Bus2=177_21 phases=3 Linecode=3c_300_SAC_XC Length=0.045011 Units=m
New Line.LINE177_21 Bus1=177_21 Bus2=177_22 phases=3 Linecode=3c_300_SAC_XC Length=0.044385 Units=m
New Line.LINE177_22 Bus1=177_22 Bus2=177_23 phases=3 Linecode=3c_300_SAC_XC Length=3.1184 Units=m
New Line.LINE177_23 Bus1=177_23 Bus2=177_24 phases=3 Linecode=3c_300_SAC_XC Length=0.16375 Units=m
New Line.LINE177_24 Bus1=177_24 Bus2=177_25 phases=3 Linecode=3c_300_SAC_XC Length=0.16378 Units=m
New Line.LINE177_25 Bus1=177_25 Bus2=177_26 phases=3 Linecode=3c_300_SAC_XC Length=0.16444 Units=m
New Line.LINE177_26 Bus1=177_26 Bus2=177_27 phases=3 Linecode=3c_300_SAC_XC Length=0.16396 Units=m
New Line.LINE177_27 Bus1=177_27 Bus2=177_28 phases=3 Linecode=3c_300_SAC_XC Length=0.16439 Units=m
New Line.LINE177_28 Bus1=177_28 Bus2=177_29 phases=3 Linecode=3c_300_SAC_XC Length=0.16447 Units=m
New Line.LINE177_29 Bus1=177_29 Bus2=177_30 phases=3 Linecode=3c_300_SAC_XC Length=1.5423 Units=m
New Line.LINE177_30 Bus1=177_30 Bus2=177_31 phases=3 Linecode=4c_.3_AS Length=1.9583 Units=m
New Line.LINE177_31 Bus1=177_30 Bus2=177_32 phases=3 Linecode=4c_.3_AS Length=2.5203 Units=m
New Line.LINE177_32 Bus1=177_30 Bus2=177_33 phases=3 Linecode=4c_.3_AS Length=1.9583 Units=m
New Line.LINE177_33 Bus1=177_30 Bus2=177_34 phases=3 Linecode=4c_.3_AS Length=0.01 Units=m
New Line.LINE177_34 Bus1=177_30 Bus2=177_35 phases=3 Linecode=4c_.3_AS Length=0.01 Units=m
New Line.LINE177_35 Bus1=177_31 Bus2=177_36 phases=3 Linecode=4c_.3_AS Length=0.12732 Units=m
New Line.LINE177_36 Bus1=177_31 Bus2=177_37 phases=3 Linecode=4c_.3_AS Length=0.12732 Units=m
New Line.LINE177_37 Bus1=177_36 Bus2=177_38 phases=3 Linecode=4c_.3_AS Length=0.10255 Units=m
New Line.LINE177_38 Bus1=177_36 Bus2=177_39 phases=3 Linecode=4c_.3_AS Length=0.10255 Units=m
New Line.LINE177_39 Bus1=177_38 Bus2=177_40 phases=3 Linecode=4c_.3_AS Length=0.70109 Units=m
New Line.LINE177_40 Bus1=177_38 Bus2=177_41 phases=3 Linecode=4c_.3_AS Length=0.70109 Units=m
New Line.LINE177_41 Bus1=177_40 Bus2=177_42 phases=3 Linecode=4c_.3_AS Length=18.8763 Units=m
New Line.LINE177_42 Bus1=177_40 Bus2=177_43 phases=3 Linecode=4c_.3_AS Length=18.8763 Units=m
New Line.LINE177_43 Bus1=177_42 Bus2=177_44 phases=3 Linecode=4c_.3_AS Length=1.0788 Units=m
New Line.LINE177_44 Bus1=177_42 Bus2=177_45 phases=3 Linecode=4c_.3_AS Length=1.0788 Units=m
New Line.LINE177_45 Bus1=177_44 Bus2=177_46 phases=3 Linecode=4c_.3_AS Length=0.20557 Units=m
New Line.LINE177_46 Bus1=177_44 Bus2=177_47 phases=3 Linecode=4c_.3_AS Length=0.20557 Units=m
New Line.LINE177_47 Bus1=177_46 Bus2=177_48 phases=3 Linecode=4c_.3_AS Length=0.21567 Units=m
New Line.LINE177_48 Bus1=177_46 Bus2=177_49 phases=3 Linecode=4c_.3_AS Length=0.21567 Units=m
New Line.LINE177_49 Bus1=177_48 Bus2=177_50 phases=3 Linecode=4c_.3_AS Length=0.4642 Units=m
New Line.LINE177_50 Bus1=177_48 Bus2=177_51 phases=3 Linecode=4c_.3_AS Length=0.4642 Units=m
New Line.LINE177_51 Bus1=177_50 Bus2=177_52 phases=3 Linecode=4c_.3_AS Length=3.0955 Units=m
New Line.LINE177_52 Bus1=177_50 Bus2=177_53 phases=3 Linecode=4c_.3_AS Length=3.0955 Units=m
New Line.LINE177_53 Bus1=177_52 Bus2=177_54 phases=3 Linecode=4c_.3_AS Length=3.0813 Units=m
New Line.LINE177_54 Bus1=177_52 Bus2=177_55 phases=3 Linecode=4c_.3_AS Length=3.0813 Units=m
New Line.LINE177_55 Bus1=177_54 Bus2=177_56 phases=3 Linecode=4c_.3_AS Length=0.81012 Units=m
New Line.LINE177_56 Bus1=177_54 Bus2=177_57 phases=3 Linecode=4c_.3_AS Length=0.81012 Units=m
New Line.LINE177_57 Bus1=177_56 Bus2=177_58 phases=3 Linecode=4c_.3_AS Length=0.063561 Units=m
New Line.LINE177_58 Bus1=177_56 Bus2=177_59 phases=3 Linecode=4c_.3_AS Length=0.063561 Units=m
New Line.LINE177_59 Bus1=177_58 Bus2=177_60 phases=3 Linecode=4c_.3_AS Length=0.056294 Units=m
New Line.LINE177_60 Bus1=177_58 Bus2=177_61 phases=3 Linecode=4c_.3_AS Length=0.056294 Units=m
New Line.LINE177_61 Bus1=177_60 Bus2=177_62 phases=3 Linecode=4c_.3_AS Length=0.080399 Units=m
New Line.LINE177_62 Bus1=177_60 Bus2=177_63 phases=3 Linecode=4c_.3_AS Length=0.080399 Units=m
New Line.LINE177_63 Bus1=177_62 Bus2=177_64 phases=3 Linecode=4c_.3_AS Length=0.098 Units=m
New Line.LINE177_64 Bus1=177_62 Bus2=177_65 phases=3 Linecode=4c_.3_AS Length=0.098 Units=m
New Line.LINE177_65 Bus1=177_64 Bus2=177_66 phases=3 Linecode=4c_.3_AS Length=0.092346 Units=m
New Line.LINE177_66 Bus1=177_64 Bus2=177_67 phases=3 Linecode=4c_.3_AS Length=0.092346 Units=m
New Line.LINE177_67 Bus1=177_66 Bus2=177_68 phases=3 Linecode=4c_.3_AS Length=0.12219 Units=m
New Line.LINE177_68 Bus1=177_66 Bus2=177_69 phases=3 Linecode=4c_.3_AS Length=0.12219 Units=m
New Line.LINE177_69 Bus1=177_68 Bus2=177_70 phases=3 Linecode=4c_.3_AS Length=0.068029 Units=m
New Line.LINE177_70 Bus1=177_68 Bus2=177_71 phases=3 Linecode=4c_.3_AS Length=0.068029 Units=m
New Line.LINE177_71 Bus1=177_70 Bus2=177_72 phases=3 Linecode=4c_.3_AS Length=0.051865 Units=m
New Line.LINE177_72 Bus1=177_70 Bus2=177_73 phases=3 Linecode=4c_.3_AS Length=0.051865 Units=m
New Line.LINE177_73 Bus1=177_72 Bus2=177_74 phases=3 Linecode=4c_.3_AS Length=0.055972 Units=m
New Line.LINE177_74 Bus1=177_72 Bus2=177_75 phases=3 Linecode=4c_.3_AS Length=0.055972 Units=m
New Line.LINE177_75 Bus1=177_74 Bus2=177_76 phases=3 Linecode=4c_.3_AS Length=0.072623 Units=m
New Line.LINE177_76 Bus1=177_74 Bus2=177_77 phases=3 Linecode=4c_.3_AS Length=0.072623 Units=m
New Line.LINE177_77 Bus1=177_76 Bus2=177_78 phases=3 Linecode=4c_.3_AS Length=0.28008 Units=m
New Line.LINE177_78 Bus1=177_76 Bus2=177_79 phases=3 Linecode=4c_.3_AS Length=0.28008 Units=m
New Line.LINE177_79 Bus1=177_78 Bus2=177_80 phases=3 Linecode=4c_.3_AS Length=1.7744 Units=m
New Line.LINE177_80 Bus1=177_78 Bus2=177_81 phases=3 Linecode=4c_.3_AS Length=1.7744 Units=m
New Line.LINE177_81 Bus1=177_80 Bus2=177_82 phases=3 Linecode=4c_.3_AS Length=0.98678 Units=m
New Line.LINE177_82 Bus1=177_80 Bus2=177_83 phases=3 Linecode=4c_.3_AS Length=0.98678 Units=m
New Line.LINE177_83 Bus1=177_82 Bus2=177_84 phases=3 Linecode=4c_.3_AS Length=0.526 Units=m
New Line.LINE177_84 Bus1=177_82 Bus2=177_85 phases=3 Linecode=4c_.3_AS Length=0.526 Units=m
New Line.LINE177_85 Bus1=177_84 Bus2=177_86 phases=3 Linecode=4c_.3_AS Length=0.97026 Units=m
New Line.LINE177_86 Bus1=177_84 Bus2=177_87 phases=3 Linecode=4c_.3_AS Length=0.97026 Units=m
New Line.LINE177_87 Bus1=177_86 Bus2=177_88 phases=3 Linecode=4c_.3_AS Length=1.7664 Units=m
New Line.LINE177_88 Bus1=177_86 Bus2=177_89 phases=3 Linecode=4c_.3_AS Length=1.7664 Units=m
New Line.LINE177_89 Bus1=177_88 Bus2=177_90 phases=3 Linecode=4c_.3_AS Length=0.41949 Units=m
New Line.LINE177_90 Bus1=177_88 Bus2=177_91 phases=3 Linecode=4c_.3_AS Length=0.41949 Units=m
New Line.LINE177_91 Bus1=177_90 Bus2=177_92 phases=3 Linecode=4c_.3_AS Length=0.71156 Units=m
New Line.LINE177_92 Bus1=177_90 Bus2=177_93 phases=3 Linecode=4c_.3_AS Length=0.71156 Units=m
New Line.LINE177_93 Bus1=177_92 Bus2=177_94 phases=3 Linecode=4c_.3_AS Length=0.50574 Units=m
New Line.LINE177_94 Bus1=177_92 Bus2=177_95 phases=3 Linecode=4c_.3_AS Length=0.50574 Units=m
New Line.LINE177_95 Bus1=177_94 Bus2=177_96 phases=3 Linecode=4c_.3_AS Length=2.0553 Units=m
New Line.LINE177_96 Bus1=177_94 Bus2=177_97 phases=3 Linecode=2c_.007 Length=0.39607 Units=m
New Line.LINE177_97 Bus1=177_94 Bus2=177_98 phases=3 Linecode=4c_.3_AS Length=2.0553 Units=m
New Line.LINE177_98 Bus1=177_96 Bus2=177_99 phases=3 Linecode=4c_.3_AS Length=2.8347 Units=m
New Line.LINE177_99 Bus1=177_96 Bus2=177_100 phases=3 Linecode=4c_.3_AS Length=2.8347 Units=m
New Line.LINE177_100 Bus1=177_97 Bus2=177_101 phases=3 Linecode=4_PC Length=0.11621 Units=m
New Line.LINE177_101 Bus1=177_99 Bus2=177_102 phases=3 Linecode=4c_.3_AS Length=4.7616 Units=m
New Line.LINE177_102 Bus1=177_99 Bus2=177_103 phases=3 Linecode=4c_.3_AS Length=4.7616 Units=m
New Line.LINE177_103 Bus1=177_101 Bus2=177_104 phases=3 Linecode=4_PC Length=0.31212 Units=m
New Line.LINE177_104 Bus1=177_102 Bus2=177_105 phases=3 Linecode=4c_.3_AS Length=6.1848 Units=m
New Line.LINE177_105 Bus1=177_102 Bus2=177_106 phases=3 Linecode=4c_.3_AS Length=6.1848 Units=m
New Line.LINE177_106 Bus1=177_105 Bus2=177_107 phases=3 Linecode=4c_.3_AS Length=7.3682 Units=m
New Line.LINE177_107 Bus1=177_105 Bus2=177_108 phases=3 Linecode=4c_.3_AS Length=7.3682 Units=m
New Line.LINE177_108 Bus1=177_107 Bus2=177_109 phases=3 Linecode=4c_.3_AS Length=5.7589 Units=m
New Line.LINE177_109 Bus1=177_107 Bus2=177_110 phases=3 Linecode=4c_.3_AS Length=5.7589 Units=m
New Line.LINE177_110 Bus1=177_109 Bus2=177_111 phases=3 Linecode=4c_.3_AS Length=8.232 Units=m
New Line.LINE177_111 Bus1=177_109 Bus2=177_112 phases=3 Linecode=4c_.3_AS Length=8.232 Units=m
New Line.LINE177_112 Bus1=177_111 Bus2=177_113 phases=3 Linecode=4c_.3_AS Length=15.9976 Units=m
New Line.LINE177_113 Bus1=177_111 Bus2=177_114 phases=3 Linecode=4c_.3_AS Length=15.9976 Units=m
New Line.LINE177_114 Bus1=177_113 Bus2=177_115 phases=3 Linecode=4c_.3_AS Length=12.5019 Units=m
New Line.LINE177_115 Bus1=177_113 Bus2=177_116 phases=3 Linecode=4c_.3_AS Length=11.2461 Units=m
New Line.LINE177_116 Bus1=177_115 Bus2=177_117 phases=3 Linecode=4c_.3_AS Length=0.61905 Units=m
New Line.LINE177_117 Bus1=177_115 Bus2=177_118 phases=3 Linecode=4c_.3_AS Length=0.61905 Units=m
New Line.LINE177_118 Bus1=177_115 Bus2=177_119 phases=3 Linecode=4c_.3_AS Length=1.2559 Units=m
New Line.LINE177_119 Bus1=177_116 Bus2=177_120 phases=3 Linecode=2c_.007 Length=1.4051 Units=m
New Line.LINE177_120 Bus1=177_117 Bus2=177_121 phases=3 Linecode=4c_.3_AS Length=0.37321 Units=m
New Line.LINE177_121 Bus1=177_117 Bus2=177_122 phases=3 Linecode=4c_.3_AS Length=0.37321 Units=m
New Line.LINE177_122 Bus1=177_120 Bus2=177_123 phases=3 Linecode=2c_.007 Length=0.10542 Units=m
New Line.LINE177_123 Bus1=177_121 Bus2=177_124 phases=3 Linecode=4c_.3_AS Length=0.5629 Units=m
New Line.LINE177_124 Bus1=177_121 Bus2=177_125 phases=3 Linecode=4c_.3_AS Length=0.5629 Units=m
New Line.LINE177_125 Bus1=177_123 Bus2=177_126 phases=3 Linecode=2c_.007 Length=0.1058 Units=m
New Line.LINE177_126 Bus1=177_124 Bus2=177_127 phases=3 Linecode=4c_.3_AS Length=1.107 Units=m
New Line.LINE177_127 Bus1=177_124 Bus2=177_128 phases=3 Linecode=4c_.3_AS Length=1.107 Units=m
New Line.LINE177_128 Bus1=177_126 Bus2=177_129 phases=3 Linecode=2c_.007 Length=0.31695 Units=m
New Line.LINE177_129 Bus1=177_127 Bus2=177_130 phases=3 Linecode=4c_.3_AS Length=1.0376 Units=m
New Line.LINE177_130 Bus1=177_127 Bus2=177_131 phases=3 Linecode=4c_.3_AS Length=1.0376 Units=m
New Line.LINE177_131 Bus1=177_129 Bus2=177_132 phases=3 Linecode=4_XSC Length=0.40048 Units=m
New Line.LINE177_132 Bus1=177_130 Bus2=177_133 phases=3 Linecode=4c_.3_AS Length=1.2692 Units=m
New Line.LINE177_133 Bus1=177_130 Bus2=177_134 phases=3 Linecode=4c_.3_AS Length=1.2692 Units=m
New Line.LINE177_134 Bus1=177_132 Bus2=177_135 phases=3 Linecode=4_XSC Length=0.1 Units=m
New Line.LINE177_135 Bus1=177_133 Bus2=177_136 phases=3 Linecode=4c_.3_AS Length=1.0347 Units=m
New Line.LINE177_136 Bus1=177_133 Bus2=177_137 phases=3 Linecode=4c_.3_AS Length=1.0347 Units=m
New Line.LINE177_137 Bus1=177_135 Bus2=177_138 phases=3 Linecode=4_XSC Length=0.099765 Units=m
New Line.LINE177_138 Bus1=177_136 Bus2=177_139 phases=3 Linecode=4c_.3_AS Length=0.96261 Units=m
New Line.LINE177_139 Bus1=177_136 Bus2=177_140 phases=3 Linecode=4c_.3_AS Length=0.96261 Units=m
New Line.LINE177_140 Bus1=177_138 Bus2=177_141 phases=3 Linecode=4_XSC Length=0.10017 Units=m
New Line.LINE177_141 Bus1=177_139 Bus2=177_142 phases=3 Linecode=4c_.3_AS Length=0.84607 Units=m
New Line.LINE177_142 Bus1=177_139 Bus2=177_143 phases=3 Linecode=4c_.3_AS Length=0.84607 Units=m
New Line.LINE177_143 Bus1=177_141 Bus2=177_144 phases=3 Linecode=4_XSC Length=0.098793 Units=m
New Line.LINE177_144 Bus1=177_142 Bus2=177_145 phases=3 Linecode=4c_.3_AS Length=0.39915 Units=m
New Line.LINE177_145 Bus1=177_142 Bus2=177_146 phases=3 Linecode=4c_.3_AS Length=0.39915 Units=m
New Line.LINE177_146 Bus1=177_144 Bus2=177_147 phases=3 Linecode=4_XSC Length=0.10002 Units=m
New Line.LINE177_147 Bus1=177_145 Bus2=177_148 phases=3 Linecode=4c_.3_AS Length=1.0491 Units=m
New Line.LINE177_148 Bus1=177_145 Bus2=177_149 phases=3 Linecode=4c_.3_AS Length=1.0491 Units=m
New Line.LINE177_149 Bus1=177_147 Bus2=177_150 phases=3 Linecode=4_XSC Length=0.1 Units=m
New Line.LINE177_150 Bus1=177_148 Bus2=177_151 phases=3 Linecode=4c_.3_AS Length=1.1739 Units=m
New Line.LINE177_151 Bus1=177_148 Bus2=177_152 phases=3 Linecode=4c_.3_AS Length=1.1739 Units=m
New Line.LINE177_152 Bus1=177_150 Bus2=177_153 phases=3 Linecode=4_XSC Length=0.099464 Units=m
New Line.LINE177_153 Bus1=177_151 Bus2=177_154 phases=3 Linecode=4c_.3_AS Length=0.87707 Units=m
New Line.LINE177_154 Bus1=177_151 Bus2=177_155 phases=3 Linecode=4c_.3_AS Length=0.87707 Units=m
New Line.LINE177_155 Bus1=177_154 Bus2=177_156 phases=3 Linecode=4c_.3_AS Length=0.66239 Units=m
New Line.LINE177_156 Bus1=177_154 Bus2=177_157 phases=3 Linecode=4c_.3_AS Length=0.66239 Units=m
New Line.LINE177_157 Bus1=177_156 Bus2=177_158 phases=3 Linecode=4c_.3_AS Length=0.53939 Units=m
New Line.LINE177_158 Bus1=177_156 Bus2=177_159 phases=3 Linecode=4c_.3_AS Length=0.53939 Units=m
New Line.LINE177_159 Bus1=177_158 Bus2=177_160 phases=3 Linecode=4c_.3_AS Length=0.95786 Units=m
New Line.LINE177_160 Bus1=177_158 Bus2=177_161 phases=3 Linecode=4c_.3_AS Length=0.95786 Units=m
New Line.LINE177_161 Bus1=177_160 Bus2=177_162 phases=3 Linecode=4c_.25 Length=0.79328 Units=m
New Line.LINE177_162 Bus1=177_160 Bus2=177_163 phases=3 Linecode=4c_.25 Length=3.7227 Units=m
New Line.LINE177_163 Bus1=177_160 Bus2=177_164 phases=3 Linecode=4c_.25 Length=3.6944 Units=m
New Line.LINE177_164 Bus1=177_160 Bus2=177_165 phases=3 Linecode=4c_.25 Length=2.4617 Units=m
New Line.LINE177_165 Bus1=177_162 Bus2=177_166 phases=3 Linecode=4c_.25 Length=0.59577 Units=m
New Line.LINE177_166 Bus1=177_164 Bus2=177_167 phases=3 Linecode=25_SAC_XC Length=0.49962 Units=m
New Line.LINE177_167 Bus1=177_165 Bus2=177_168 phases=3 Linecode=4c_.25 Length=10.0208 Units=m
New Line.LINE177_168 Bus1=177_165 Bus2=177_169 phases=3 Linecode=4c_.25 Length=10.0208 Units=m
New Line.LINE177_169 Bus1=177_165 Bus2=177_170 phases=3 Linecode=4c_.25 Length=10.0208 Units=m
New Line.LINE177_170 Bus1=177_166 Bus2=177_171 phases=3 Linecode=4c_.25 Length=0.40165 Units=m
New Line.LINE177_171 Bus1=177_167 Bus2=177_172 phases=3 Linecode=4c_.25 Length=4.6187 Units=m
New Line.LINE177_172 Bus1=177_168 Bus2=177_173 phases=3 Linecode=4c_.25 Length=6.3292 Units=m
New Line.LINE177_173 Bus1=177_168 Bus2=177_174 phases=3 Linecode=4c_.25 Length=6.3292 Units=m
New Line.LINE177_174 Bus1=177_168 Bus2=177_175 phases=3 Linecode=4c_.25 Length=6.3292 Units=m
New Line.LINE177_175 Bus1=177_171 Bus2=177_176 phases=3 Linecode=4c_.25 Length=0.33364 Units=m
New Line.LINE177_176 Bus1=177_173 Bus2=177_177 phases=3 Linecode=4c_.25 Length=10.6068 Units=m
New Line.LINE177_177 Bus1=177_173 Bus2=177_178 phases=3 Linecode=4c_.25 Length=10.6068 Units=m
New Line.LINE177_178 Bus1=177_173 Bus2=177_179 phases=3 Linecode=4c_.25 Length=2.9197 Units=m
New Line.LINE177_179 Bus1=177_177 Bus2=177_180 phases=3 Linecode=4c_.25 Length=7.0399 Units=m
New Line.LINE177_180 Bus1=177_177 Bus2=177_181 phases=3 Linecode=4c_.25 Length=7.0399 Units=m
New Line.LINE177_181 Bus1=177_177 Bus2=177_182 phases=3 Linecode=4c_.25 Length=7.0399 Units=m
New Line.LINE177_182 Bus1=177_177 Bus2=177_183 phases=3 Linecode=2c_.04 Length=8.3486 Units=m
New Line.LINE177_183 Bus1=177_177 Bus2=177_184 phases=3 Linecode=4c_.25 Length=7.687 Units=m
New Line.LINE177_184 Bus1=177_179 Bus2=177_185 phases=3 Linecode=4_XC Length=0.16818 Units=m
New Line.LINE177_185 Bus1=177_180 Bus2=177_186 phases=3 Linecode=4c_.25 Length=13.3051 Units=m
New Line.LINE177_186 Bus1=177_180 Bus2=177_187 phases=3 Linecode=4c_.25 Length=13.3051 Units=m
New Line.LINE177_187 Bus1=177_180 Bus2=177_188 phases=3 Linecode=4c_.25 Length=13.3051 Units=m
New Line.LINE177_188 Bus1=177_183 Bus2=177_189 phases=3 Linecode=2c_.04 Length=0.31756 Units=m
New Line.LINE177_189 Bus1=177_185 Bus2=177_190 phases=3 Linecode=4_XC Length=0.16435 Units=m
New Line.LINE177_190 Bus1=177_186 Bus2=177_191 phases=3 Linecode=4c_.25 Length=4.2972 Units=m
New Line.LINE177_191 Bus1=177_186 Bus2=177_192 phases=3 Linecode=2c_.007 Length=0.14276 Units=m
New Line.LINE177_192 Bus1=177_186 Bus2=177_193 phases=3 Linecode=4c_.25 Length=4.2972 Units=m
New Line.LINE177_193 Bus1=177_186 Bus2=177_194 phases=3 Linecode=4c_.25 Length=4.2972 Units=m
New Line.LINE177_194 Bus1=177_189 Bus2=177_195 phases=3 Linecode=2c_.04 Length=0.29099 Units=m
New Line.LINE177_195 Bus1=177_190 Bus2=177_196 phases=3 Linecode=4_XC Length=0.16519 Units=m
New Line.LINE177_196 Bus1=177_191 Bus2=177_197 phases=3 Linecode=4c_.25 Length=3.3899 Units=m
New Line.LINE177_197 Bus1=177_191 Bus2=177_198 phases=3 Linecode=4c_.25 Length=3.3899 Units=m
New Line.LINE177_198 Bus1=177_191 Bus2=177_199 phases=3 Linecode=4c_.25 Length=3.3899 Units=m
New Line.LINE177_199 Bus1=177_192 Bus2=177_200 phases=3 Linecode=2c_.007 Length=0.062297 Units=m
New Line.LINE177_200 Bus1=177_195 Bus2=177_201 phases=3 Linecode=2c_.04 Length=0.21596 Units=m
New Line.LINE177_201 Bus1=177_196 Bus2=177_202 phases=3 Linecode=4_XC Length=0.16445 Units=m
New Line.LINE177_202 Bus1=177_197 Bus2=177_203 phases=3 Linecode=4c_.25 Length=1.3964 Units=m
New Line.LINE177_203 Bus1=177_197 Bus2=177_204 phases=3 Linecode=4c_.25 Length=1.3964 Units=m
New Line.LINE177_204 Bus1=177_197 Bus2=177_205 phases=3 Linecode=4c_.25 Length=1.3964 Units=m
New Line.LINE177_205 Bus1=177_200 Bus2=177_206 phases=3 Linecode=2c_.007 Length=0.084292 Units=m
New Line.LINE177_206 Bus1=177_201 Bus2=177_207 phases=3 Linecode=2c_.04 Length=0.26846 Units=m
New Line.LINE177_207 Bus1=177_202 Bus2=177_208 phases=3 Linecode=4_XC Length=0.16532 Units=m
New Line.LINE177_208 Bus1=177_203 Bus2=177_209 phases=3 Linecode=4c_.25 Length=3.0452 Units=m
New Line.LINE177_209 Bus1=177_203 Bus2=177_210 phases=3 Linecode=4c_.25 Length=3.0452 Units=m
New Line.LINE177_210 Bus1=177_203 Bus2=177_211 phases=3 Linecode=4c_.25 Length=3.0452 Units=m
New Line.LINE177_211 Bus1=177_206 Bus2=177_212 phases=3 Linecode=2c_.007 Length=0.11807 Units=m
New Line.LINE177_212 Bus1=177_207 Bus2=177_213 phases=3 Linecode=2c_.04 Length=0.21694 Units=m
New Line.LINE177_213 Bus1=177_208 Bus2=177_214 phases=3 Linecode=4_XC Length=0.16447 Units=m
New Line.LINE177_214 Bus1=177_209 Bus2=177_215 phases=3 Linecode=4c_.25 Length=1.436 Units=m
New Line.LINE177_215 Bus1=177_212 Bus2=177_216 phases=3 Linecode=2c_.007 Length=0.10749 Units=m
New Line.LINE177_216 Bus1=177_213 Bus2=177_217 phases=3 Linecode=2c_.04 Length=0.41549 Units=m
New Line.LINE177_217 Bus1=177_215 Bus2=177_218 phases=3 Linecode=2c_.04 Length=3.0556 Units=m
New Line.LINE177_218 Bus1=177_215 Bus2=177_219 phases=3 Linecode=3c_.04 Length=3.0556 Units=m
New Line.LINE177_219 Bus1=177_215 Bus2=177_220 phases=3 Linecode=4c_.25 Length=10.9146 Units=m
New Line.LINE177_220 Bus1=177_216 Bus2=177_221 phases=3 Linecode=2c_.007 Length=0.15253 Units=m
New Line.LINE177_221 Bus1=177_217 Bus2=177_222 phases=3 Linecode=2c_.04 Length=4.7434 Units=m
New Line.LINE177_222 Bus1=177_217 Bus2=177_223 phases=3 Linecode=2c_.04 Length=0.33505 Units=m
New Line.LINE177_223 Bus1=177_218 Bus2=177_224 phases=3 Linecode=2c_.04 Length=0.32739 Units=m
New Line.LINE177_224 Bus1=177_218 Bus2=177_225 phases=3 Linecode=3c_.04 Length=0.32739 Units=m
New Line.LINE177_225 Bus1=177_220 Bus2=177_226 phases=3 Linecode=4c_.25 Length=2.6846 Units=m
New Line.LINE177_226 Bus1=177_221 Bus2=177_227 phases=3 Linecode=2c_.007 Length=0.06217 Units=m
New Line.LINE177_227 Bus1=177_223 Bus2=177_228 phases=3 Linecode=2c_.04 Length=0.091838 Units=m
New Line.LINE177_228 Bus1=177_224 Bus2=177_229 phases=3 Linecode=2c_.04 Length=0.21836 Units=m
New Line.LINE177_229 Bus1=177_224 Bus2=177_230 phases=3 Linecode=3c_.04 Length=0.21836 Units=m
New Line.LINE177_230 Bus1=177_226 Bus2=177_231 phases=3 Linecode=25_SAC_XC Length=4.8122 Units=m
New Line.LINE177_231 Bus1=177_226 Bus2=177_232 phases=3 Linecode=4c_.25 Length=2.686 Units=m
New Line.LINE177_232 Bus1=177_227 Bus2=177_233 phases=3 Linecode=2c_.007 Length=0.12748 Units=m
New Line.LINE177_233 Bus1=177_228 Bus2=177_234 phases=3 Linecode=2c_.04 Length=0.18584 Units=m
New Line.LINE177_234 Bus1=177_229 Bus2=177_235 phases=3 Linecode=2c_.04 Length=0.44294 Units=m
New Line.LINE177_235 Bus1=177_229 Bus2=177_236 phases=3 Linecode=3c_.04 Length=0.44294 Units=m
New Line.LINE177_236 Bus1=177_231 Bus2=177_237 phases=3 Linecode=25_SAC_XC Length=4.5113 Units=m
New Line.LINE177_237 Bus1=177_231 Bus2=177_238 phases=3 Linecode=25_SAC_XC Length=4.5113 Units=m
New Line.LINE177_238 Bus1=177_232 Bus2=177_239 phases=3 Linecode=4c_.25 Length=10.6534 Units=m
New Line.LINE177_239 Bus1=177_233 Bus2=177_240 phases=3 Linecode=2c_.007 Length=0.072 Units=m
New Line.LINE177_240 Bus1=177_234 Bus2=177_241 phases=3 Linecode=2c_.04 Length=0.16273 Units=m
New Line.LINE177_241 Bus1=177_235 Bus2=177_242 phases=3 Linecode=2c_.04 Length=0.033121 Units=m
New Line.LINE177_242 Bus1=177_235 Bus2=177_243 phases=3 Linecode=3c_.04 Length=0.033121 Units=m
New Line.LINE177_243 Bus1=177_239 Bus2=177_244 phases=3 Linecode=4c_.25 Length=9.4456 Units=m
New Line.LINE177_244 Bus1=177_240 Bus2=177_245 phases=3 Linecode=2c_.007 Length=0.042579 Units=m
New Line.LINE177_245 Bus1=177_241 Bus2=177_246 phases=3 Linecode=2c_.04 Length=0.29283 Units=m
New Line.LINE177_246 Bus1=177_242 Bus2=177_247 phases=3 Linecode=2c_.04 Length=0.032651 Units=m
New Line.LINE177_247 Bus1=177_242 Bus2=177_248 phases=3 Linecode=3c_.04 Length=0.032651 Units=m
New Line.LINE177_248 Bus1=177_244 Bus2=177_249 phases=3 Linecode=2c_.04 Length=2.5098 Units=m
New Line.LINE177_249 Bus1=177_244 Bus2=177_250 phases=3 Linecode=4c_.25 Length=9.6246 Units=m
New Line.LINE177_250 Bus1=177_245 Bus2=177_251 phases=3 Linecode=2c_.007 Length=0.080994 Units=m
New Line.LINE177_251 Bus1=177_246 Bus2=177_252 phases=3 Linecode=2c_.04 Length=0.48643 Units=m
New Line.LINE177_252 Bus1=177_247 Bus2=177_253 phases=3 Linecode=2c_.04 Length=0.032557 Units=m
New Line.LINE177_253 Bus1=177_247 Bus2=177_254 phases=3 Linecode=3c_.04 Length=0.032557 Units=m
New Line.LINE177_254 Bus1=177_249 Bus2=177_255 phases=3 Linecode=2c_.04 Length=0.090906 Units=m
New Line.LINE177_255 Bus1=177_250 Bus2=177_256 phases=3 Linecode=4c_.25 Length=2.4094 Units=m
New Line.LINE177_256 Bus1=177_251 Bus2=177_257 phases=3 Linecode=2c_.007 Length=0.097082 Units=m
New Line.LINE177_257 Bus1=177_252 Bus2=177_258 phases=3 Linecode=2c_.04 Length=1.9809 Units=m
New Line.LINE177_258 Bus1=177_253 Bus2=177_259 phases=3 Linecode=2c_.04 Length=1.7656 Units=m
New Line.LINE177_259 Bus1=177_253 Bus2=177_260 phases=3 Linecode=3c_.04 Length=1.7656 Units=m
New Line.LINE177_260 Bus1=177_255 Bus2=177_261 phases=3 Linecode=2c_.04 Length=0.16225 Units=m
New Line.LINE177_261 Bus1=177_256 Bus2=177_262 phases=3 Linecode=2c_.007 Length=0.23735 Units=m
New Line.LINE177_262 Bus1=177_256 Bus2=177_263 phases=3 Linecode=4c_.25 Length=3.9764 Units=m
New Line.LINE177_263 Bus1=177_257 Bus2=177_264 phases=3 Linecode=2c_.007 Length=0.083235 Units=m
New Line.LINE177_264 Bus1=177_258 Bus2=177_265 phases=3 Linecode=2c_.04 Length=2.648 Units=m
New Line.LINE177_265 Bus1=177_259 Bus2=177_266 phases=3 Linecode=2c_.04 Length=7.8263 Units=m
New Line.LINE177_266 Bus1=177_259 Bus2=177_267 phases=3 Linecode=3c_.04 Length=7.8263 Units=m
New Line.LINE177_267 Bus1=177_261 Bus2=177_268 phases=3 Linecode=2c_.04 Length=3.0765 Units=m
New Line.LINE177_268 Bus1=177_262 Bus2=177_269 phases=3 Linecode=2c_.007 Length=0.056089 Units=m
New Line.LINE177_269 Bus1=177_263 Bus2=177_270 phases=3 Linecode=4c_.25 Length=16.7095 Units=m
New Line.LINE177_270 Bus1=177_264 Bus2=177_271 phases=3 Linecode=2c_.007 Length=0.081004 Units=m
New Line.LINE177_271 Bus1=177_265 Bus2=177_272 phases=3 Linecode=2c_.04 Length=0.91392 Units=m
New Line.LINE177_272 Bus1=177_266 Bus2=177_273 phases=3 Linecode=2c_.04 Length=0.56403 Units=m
New Line.LINE177_273 Bus1=177_266 Bus2=177_274 phases=3 Linecode=2c_.04 Length=0.67588 Units=m
New Line.LINE177_274 Bus1=177_268 Bus2=177_275 phases=3 Linecode=2c_.04 Length=0.13294 Units=m
New Line.LINE177_275 Bus1=177_269 Bus2=177_276 phases=3 Linecode=2c_.007 Length=0.059001 Units=m
New Line.LINE177_276 Bus1=177_270 Bus2=177_277 phases=3 Linecode=2c_.04 Length=5.6374 Units=m
New Line.LINE177_277 Bus1=177_270 Bus2=177_278 phases=3 Linecode=4c_.25 Length=9.6962 Units=m
New Line.LINE177_278 Bus1=177_271 Bus2=177_279 phases=3 Linecode=2c_.007 Length=0.18504 Units=m
New Line.LINE177_279 Bus1=177_272 Bus2=177_280 phases=3 Linecode=2c_.04 Length=1.2541 Units=m
New Line.LINE177_280 Bus1=177_273 Bus2=177_281 phases=3 Linecode=2c_.04 Length=0.0972 Units=m
New Line.LINE177_281 Bus1=177_274 Bus2=177_282 phases=3 Linecode=2c_.04 Length=0.17535 Units=m
New Line.LINE177_282 Bus1=177_275 Bus2=177_283 phases=3 Linecode=2c_.04 Length=2.2672 Units=m
New Line.LINE177_283 Bus1=177_276 Bus2=177_284 phases=3 Linecode=2c_.007 Length=0.041485 Units=m
New Line.LINE177_284 Bus1=177_277 Bus2=177_285 phases=3 Linecode=2c_.04 Length=4.0078 Units=m
New Line.LINE177_285 Bus1=177_277 Bus2=177_286 phases=3 Linecode=2c_.04 Length=1.06 Units=m
New Line.LINE177_286 Bus1=177_278 Bus2=177_287 phases=3 Linecode=2c_.007 Length=0.14485 Units=m
New Line.LINE177_287 Bus1=177_278 Bus2=177_288 phases=3 Linecode=4c_.25 Length=0.76009 Units=m
New Line.LINE177_288 Bus1=177_279 Bus2=177_289 phases=3 Linecode=2c_.007 Length=0.28431 Units=m
New Line.LINE177_289 Bus1=177_280 Bus2=177_290 phases=3 Linecode=2c_.04 Length=2.223 Units=m
New Line.LINE177_290 Bus1=177_281 Bus2=177_291 phases=3 Linecode=2c_.04 Length=0.098081 Units=m
New Line.LINE177_291 Bus1=177_282 Bus2=177_292 phases=3 Linecode=2c_.04 Length=0.075 Units=m
New Line.LINE177_292 Bus1=177_283 Bus2=177_293 phases=3 Linecode=2c_.04 Length=5.8895 Units=m
New Line.LINE177_293 Bus1=177_284 Bus2=177_294 phases=3 Linecode=2c_.007 Length=0.059168 Units=m
New Line.LINE177_294 Bus1=177_286 Bus2=177_295 phases=3 Linecode=2c_.04 Length=0.13762 Units=m
New Line.LINE177_295 Bus1=177_287 Bus2=177_296 phases=3 Linecode=2c_.007 Length=0.055082 Units=m
New Line.LINE177_296 Bus1=177_288 Bus2=177_297 phases=3 Linecode=4c_.25 Length=0.065215 Units=m
New Line.LINE177_297 Bus1=177_290 Bus2=177_298 phases=3 Linecode=2c_.04 Length=0.42562 Units=m
New Line.LINE177_298 Bus1=177_291 Bus2=177_299 phases=3 Linecode=2c_.04 Length=0.076539 Units=m
New Line.LINE177_299 Bus1=177_292 Bus2=177_300 phases=3 Linecode=2c_.04 Length=0.097329 Units=m
New Line.LINE177_300 Bus1=177_293 Bus2=177_301 phases=3 Linecode=2c_.04 Length=0.97604 Units=m
New Line.LINE177_301 Bus1=177_293 Bus2=177_302 phases=3 Linecode=2c_.04 Length=0.79925 Units=m
New Line.LINE177_302 Bus1=177_294 Bus2=177_303 phases=3 Linecode=2c_.007 Length=0.082879 Units=m
New Line.LINE177_303 Bus1=177_295 Bus2=177_304 phases=3 Linecode=2c_.04 Length=0.069 Units=m
New Line.LINE177_304 Bus1=177_296 Bus2=177_305 phases=3 Linecode=2c_.007 Length=0.10607 Units=m
New Line.LINE177_305 Bus1=177_297 Bus2=177_306 phases=3 Linecode=4c_.25 Length=0.13384 Units=m
New Line.LINE177_306 Bus1=177_298 Bus2=177_307 phases=3 Linecode=2c_.04 Length=0.28453 Units=m
New Line.LINE177_307 Bus1=177_299 Bus2=177_308 phases=3 Linecode=2c_.04 Length=0.072532 Units=m
New Line.LINE177_308 Bus1=177_300 Bus2=177_309 phases=3 Linecode=2c_.04 Length=0.068 Units=m
New Line.LINE177_309 Bus1=177_301 Bus2=177_310 phases=3 Linecode=2c_.04 Length=0.067675 Units=m
New Line.LINE177_310 Bus1=177_302 Bus2=177_311 phases=3 Linecode=2c_.04 Length=0.11057 Units=m
New Line.LINE177_311 Bus1=177_303 Bus2=177_312 phases=3 Linecode=2c_.007 Length=0.39568 Units=m
New Line.LINE177_312 Bus1=177_304 Bus2=177_313 phases=3 Linecode=2c_.04 Length=0.079404 Units=m
New Line.LINE177_313 Bus1=177_305 Bus2=177_314 phases=3 Linecode=2c_.007 Length=0.090271 Units=m
New Line.LINE177_314 Bus1=177_306 Bus2=177_315 phases=3 Linecode=4c_.25 Length=0.11094 Units=m
New Line.LINE177_315 Bus1=177_307 Bus2=177_316 phases=3 Linecode=2c_.04 Length=0.27615 Units=m