New Line.LINE1 Bus1=1 Bus2=2 phases=3 Linecode=3c_300_SAC_XC Length=1.1479 Units=m
New Line.LINE2 Bus1=2 Bus2=3 phases=3 Linecode=3c_300_SAC_XC Length=0.12588 Units=m
New Line.LINE3 Bus1=3 Bus2=4 phases=3 Linecode=3c_300_SAC_XC Length=0.12625 Units=m
New Line.LINE4 Bus1=4 Bus2=5 phases=3 Linecode=3c_300_SAC_XC Length=0.12615 Units=m
New Line.LINE5 Bus1=5 Bus2=6 phases=3 Linecode=3c_300_SAC_XC Length=0.12681 Units=m
New Line.LINE6 Bus1=6 Bus2=7 phases=3 Linecode=3c_300_SAC_XC Length=0.12627 Units=m
New Line.LINE7 Bus1=7 Bus2=8 phases=3 Linecode=3c_300_SAC_XC Length=0.1255 Units=m
New Line.LINE8 Bus1=8 Bus2=9 phases=3 Linecode=3c_300_SAC_XC Length=0.12744 Units=m
New Line.LINE9 Bus1=9 Bus2=10 phases=3 Linecode=3c_300_SAC_XC Length=0.12613 Units=m
New Line.LINE10 Bus1=10 Bus2=11 phases=3 Linecode=3c_300_SAC_XC Length=0.5946 Units=m
New Line.LINE11 Bus1=11 Bus2=12 phases=3 Linecode=3c_300_SAC_XC Length=2.5692 Units=m
New Line.LINE12 Bus1=12 Bus2=13 phases=3 Linecode=3c_300_SAC_XC Length=0.44233 Units=m
New Line.LINE13 Bus1=13 Bus2=14 phases=3 Linecode=3c_300_SAC_XC Length=2.2336 Units=m
New Line.LINE14 Bus1=14 Bus2=15 phases=3 Linecode=3c_300_SAC_XC Length=0.043417 Units=m
New Line.LINE15 Bus1=15 Bus2=16 phases=3 Linecode=3c_300_SAC_XC Length=0.044822 Units=m
New Line.LINE16 Bus1=16 Bus2=17 phases=3 Linecode=3c_300_SAC_XC Length=0.044045 Units=m
New Line.LINE17 Bus1=17 Bus2=18 phases=3 Linecode=3c_300_SAC_XC Length=0.044778 Units=m
New Line.LINE18 Bus1=18 Bus2=19 phases=3 Linecode=3c_300_SAC_XC Length=0.044271 Units=m
New Line.LINE19 Bus1=19 Bus2=20 phases=3 Linecode=3c_300_SAC_XC Length=0.043417 Units=m
New Line.LINE20 Bus1=20 Bus2=21 phases=3 Linecode=3c_300_SAC_XC Length=0.045011 Units=m
New Line.LINE21 Bus1=21 Bus2=22 phases=3 Linecode=3c_300_SAC_XC Length=0.044385 Units=m
New Line.LINE22 Bus1=22 Bus2=23 phases=3 Linecode=3c_300_SAC_XC Length=3.1184 Units=m
New Line.LINE23 Bus1=23 Bus2=24 phases=3 Linecode=3c_300_SAC_XC Length=0.16375 Units=m
New Line.LINE24 Bus1=24 Bus2=25 phases=3 Linecode=3c_300_SAC_XC Length=0.16378 Units=m
New Line.LINE25 Bus1=25 Bus2=26 phases=3 Linecode=3c_300_SAC_XC Length=0.16444 Units=m
New Line.LINE26 Bus1=26 Bus2=27 phases=3 Linecode=3c_300_SAC_XC Length=0.16396 Units=m
New Line.LINE27 Bus1=27 Bus2=28 phases=3 Linecode=3c_300_SAC_XC Length=0.16439 Units=m
New Line.LINE28 Bus1=28 Bus2=29 phases=3 Linecode=3c_300_SAC_XC Length=0.16447 Units=m
New Line.LINE29 Bus1=29 Bus2=30 phases=3 Linecode=3c_300_SAC_XC Length=1.5423 Units=m
New Line.LINE30 Bus1=30 Bus2=31 phases=3 Linecode=4c_.3_AS Length=1.9583 Units=m
New Line.LINE35 Bus1=31 Bus2=36 phases=3 Linecode=4c_.3_AS Length=0.12732 Units=m
New Line.LINE37 Bus1=36 Bus2=38 phases=3 Linecode=4c_.3_AS Length=0.10255 Units=m
New Line.LINE39 Bus1=38 Bus2=40 phases=3 Linecode=4c_.3_AS Length=0.70109 Units=m
New Line.LINE41 Bus1=40 Bus2=42 phases=3 Linecode=4c_.3_AS Length=18.8763 Units=m
New Line.LINE43 Bus1=42 Bus2=44 phases=3 Linecode=4c_.3_AS Length=1.0788 Units=m
New Line.LINE45 Bus1=44 Bus2=46 phases=3 Linecode=4c_.3_AS Length=0.20557 Units=m
New Line.LINE47 Bus1=46 Bus2=48 phases=3 Linecode=4c_.3_AS Length=0.21567 Units=m
New Line.LINE49 Bus1=48 Bus2=50 phases=3 Linecode=4c_.3_AS Length=0.4642 Units=m
New Line.LINE51 Bus1=50 Bus2=52 phases=3 Linecode=4c_.3_AS Length=3.0955 Units=m
New Line.LINE53 Bus1=52 Bus2=54 phases=3 Linecode=4c_.3_AS Length=3.0813 Units=m
New Line.LINE55 Bus1=54 Bus2=56 phases=3 Linecode=4c_.3_AS Length=0.81012 Units=m
New Line.LINE57 Bus1=56 Bus2=58 phases=3 Linecode=4c_.3_AS Length=0.063561 Units=m
New Line.LINE59 Bus1=58 Bus2=60 phases=3 Linecode=4c_.3_AS Length=0.056294 Units=m
New Line.LINE61 Bus1=60 Bus2=62 phases=3 Linecode=4c_.3_AS Length=0.080399 Units=m
New Line.LINE63 Bus1=62 Bus2=64 phases=3 Linecode=4c_.3_AS Length=0.098 Units=m
New Line.LINE65 Bus1=64 Bus2=66 phases=3 Linecode=4c_.3_AS Length=0.092346 Units=m
New Line.LINE67 Bus1=66 Bus2=68 phases=3 Linecode=4c_.3_AS Length=0.12219 Units=m
New Line.LINE69 Bus1=68 Bus2=70 phases=3 Linecode=4c_.3_AS Length=0.068029 Units=m
New Line.LINE71 Bus1=70 Bus2=72 phases=3 Linecode=4c_.3_AS Length=0.051865 Units=m
New Line.LINE73 Bus1=72 Bus2=74 phases=3 Linecode=4c_.3_AS Length=0.055972 Units=m
New Line.LINE75 Bus1=74 Bus2=76 phases=3 Linecode=4c_.3_AS Length=0.072623 Units=m
New Line.LINE77 Bus1=76 Bus2=78 phases=3 Linecode=4c_.3_AS Length=0.28008 Units=m
New Line.LINE79 Bus1=78 Bus2=80 phases=3 Linecode=4c_.3_AS Length=1.7744 Units=m
New Line.LINE81 Bus1=80 Bus2=82 phases=3 Linecode=4c_.3_AS Length=0.98678 Units=m
New Line.LINE83 Bus1=82 Bus2=84 phases=3 Linecode=4c_.3_AS Length=0.526 Units=m
New Line.LINE85 Bus1=84 Bus2=86 phases=3 Linecode=4c_.3_AS Length=0.97026 Units=m
New Line.LINE87 Bus1=86 Bus2=88 phases=3 Linecode=4c_.3_AS Length=1.7664 Units=m
New Line.LINE89 Bus1=88 Bus2=90 phases=3 Linecode=4c_.3_AS Length=0.41949 Units=m
New Line.LINE91 Bus1=90 Bus2=92 phases=3 Linecode=4c_.3_AS Length=0.71156 Units=m
New Line.LINE93 Bus1=92 Bus2=94 phases=3 Linecode=4c_.3_AS Length=0.50574 Units=m
New Line.LINE95 Bus1=94 Bus2=96 phases=3 Linecode=4c_.3_AS Length=2.0553 Units=m
New Line.LINE98 Bus1=96 Bus2=99 phases=3 Linecode=4c_.3_AS Length=2.8347 Units=m
New Line.LINE101 Bus1=99 Bus2=102 phases=3 Linecode=4c_.3_AS Length=4.7616 Units=m
New Line.LINE104 Bus1=102 Bus2=105 phases=3 Linecode=4c_.3_AS Length=6.1848 Units=m
New Line.LINE106 Bus1=105 Bus2=107 phases=3 Linecode=4c_.3_AS Length=7.3682 Units=m
New Line.LINE108 Bus1=107 Bus2=109 phases=3 Linecode=4c_.3_AS Length=5.7589 Units=m
New Line.LINE110 Bus1=109 Bus2=111 phases=3 Linecode=4c_.3_AS Length=8.232 Units=m
New Line.LINE112 Bus1=111 Bus2=113 phases=3 Linecode=4c_.3_AS Length=15.9976 Units=m
New Line.LINE114 Bus1=113 Bus2=115 phases=3 Linecode=4c_.3_AS Length=12.5019 Units=m
New Line.LINE116 Bus1=115 Bus2=117 phases=3 Linecode=4c_.3_AS Length=0.61905 Units=m
New Line.LINE120 Bus1=117 Bus2=121 phases=3 Linecode=4c_.3_AS Length=0.37321 Units=m
New Line.LINE123 Bus1=121 Bus2=124 phases=3 Linecode=4c_.3_AS Length=0.5629 Units=m
New Line.LINE126 Bus1=124 Bus2=127 phases=3 Linecode=4c_.3_AS Length=1.107 Units=m
New Line.LINE129 Bus1=127 Bus2=130 phases=3 Linecode=4c_.3_AS Length=1.0376 Units=m
New Line.LINE132 Bus1=130 Bus2=133 phases=3 Linecode=4c_.3_AS Length=1.2692 Units=m
New Line.LINE135 Bus1=133 Bus2=136 phases=3 Linecode=4c_.3_AS Length=1.0347 Units=m
New Line.LINE138 Bus1=136 Bus2=139 phases=3 Linecode=4c_.3_AS Length=0.96261 Units=m
New Line.LINE141 Bus1=139 Bus2=142 phases=3 Linecode=4c_.3_AS Length=0.84607 Units=m
New Line.LINE144 Bus1=142 Bus2=145 phases=3 Linecode=4c_.3_AS Length=0.39915 Units=m
New Line.LINE147 Bus1=145 Bus2=148 phases=3 Linecode=4c_.3_AS Length=1.0491 Units=m
New Line.LINE150 Bus1=148 Bus2=151 phases=3 Linecode=4c_.3_AS Length=1.1739 Units=m
New Line.LINE153 Bus1=151 Bus2=154 phases=3 Linecode=4c_.3_AS Length=0.87707 Units=m
New Line.LINE155 Bus1=154 Bus2=156 phases=3 Linecode=4c_.3_AS Length=0.66239 Units=m
New Line.LINE157 Bus1=156 Bus2=158 phases=3 Linecode=4c_.3_AS Length=0.53939 Units=m
New Line.LINE159 Bus1=158 Bus2=160 phases=3 Linecode=4c_.3_AS Length=0.95786 Units=m
New Line.LINE163 Bus1=160 Bus2=164 phases=3 Linecode=4c_.25 Length=3.6944 Units=m
New Line.LINE166 Bus1=164 Bus2=167 phases=3 Linecode=25_SAC_XC Length=0.49962 Units=m
New Line.LINE221 Bus1=217 Bus2=222 phases=3 Linecode=2c_.04 Length=4.7434 Units=m
New Line.LINE230 Bus1=226 Bus2=231 phases=3 Linecode=25_SAC_XC Length=4.8122 Units=m
New Line.LINE236 Bus1=231 Bus2=237 phases=3 Linecode=25_SAC_XC Length=4.5113 Units=m
New Line.LINE237 Bus1=231 Bus2=238 phases=3 Linecode=25_SAC_XC Length=4.5113 Units=m
New Line.LINE276 Bus1=270 Bus2=277 phases=3 Linecode=2c_.04 Length=5.6374 Units=m
New Line.LINE284 Bus1=277 Bus2=285 phases=3 Linecode=2c_.04 Length=4.0078 Units=m
New Line.LINE358 Bus1=349 Bus2=359 phases=3 Linecode=2c_.04 Length=3.7519 Units=m
New Line.LINE369 Bus1=361 Bus2=370 phases=3 Linecode=2c_.04 Length=4.2429 Units=m
New Line.LINE393 Bus1=385 Bus2=394 phases=3 Linecode=4c_.25 Length=2.7498 Units=m
New Line.LINE399 Bus1=390 Bus2=400 phases=3 Linecode=2c_.04 Length=3.7977 Units=m
New Line.LINE404 Bus1=394 Bus2=405 phases=3 Linecode=4c_25 Length=1.8736 Units=m
New Line.LINE414 Bus1=405 Bus2=415 phases=3 Linecode=4c_25 Length=8.4224 Units=m
New Line.LINE416 Bus1=407 Bus2=417 phases=3 Linecode=2c_.04 Length=5.0462 Units=m
New Line.LINE427 Bus1=415 Bus2=428 phases=3 Linecode=4c_25 Length=4.5067 Units=m
New Line.LINE439 Bus1=428 Bus2=440 phases=3 Linecode=2c_.04 Length=3.6921 Units=m
New Line.LINE440 Bus1=428 Bus2=441 phases=3 Linecode=4c_25 Length=3.7985 Units=m
New Line.LINE455 Bus1=441 Bus2=456 phases=3 Linecode=4c_25 Length=11.9206 Units=m
New Line.LINE470 Bus1=456 Bus2=471 phases=3 Linecode=2c_.04 Length=5.1083 Units=m
New Line.LINE485 Bus1=471 Bus2=486 phases=3 Linecode=2c_.04 Length=4.9069 Units=m
New Line.LINE562 Bus1=546 Bus2=563 phases=3 Linecode=2c_.04 Length=5.7062 Units=m
New Line.LINE563 Bus1=546 Bus2=564 phases=3 Linecode=2c_.04 Length=5.7062 Units=m
New Line.LINE661 Bus1=646 Bus2=662 phases=3 Linecode=2c_.04 Length=3.3098 Units=m
New Line.LINE662 Bus1=646 Bus2=663 phases=3 Linecode=2c_.04 Length=3.3098 Units=m
New Line.LINE712 Bus1=699 Bus2=713 phases=3 Linecode=2c_.04 Length=3.0635 Units=m
New Line.LINE713 Bus1=699 Bus2=714 phases=3 Linecode=2c_.04 Length=3.0635 Units=m
New Line.LINE728 Bus1=711 Bus2=729 phases=3 Linecode=4c_.12 Length=1.5126 Units=m
New Line.LINE743 Bus1=729 Bus2=744 phases=3 Linecode=4c_.12 Length=4.8564 Units=m
New Line.LINE748 Bus1=735 Bus2=749 phases=3 Linecode=4c_.04 Length=6.2096 Units=m
New Line.LINE749 Bus1=735 Bus2=750 phases=3 Linecode=4c_.25 Length=9.6528 Units=m
New Line.LINE759 Bus1=744 Bus2=760 phases=3 Linecode=4c_.12 Length=3.3267 Units=m
New Line.LINE768 Bus1=750 Bus2=769 phases=3 Linecode=4c_.25 Length=1.5967 Units=m
New Line.LINE777 Bus1=760 Bus2=778 phases=3 Linecode=4c_.12 Length=10.1601 Units=m
New Line.LINE788 Bus1=769 Bus2=789 phases=3 Linecode=4c_.04 Length=10.7131 Units=m
New Line.LINE797 Bus1=778 Bus2=798 phases=3 Linecode=2c_.04 Length=2.8404 Units=m
New Line.LINE806 Bus1=786 Bus2=807 phases=3 Linecode=4c_.25 Length=11.3485 Units=m
New Line.LINE810 Bus1=789 Bus2=811 phases=3 Linecode=4c_.04 Length=2.3127 Units=m
New Line.LINE820 Bus1=798 Bus2=821 phases=3 Linecode=2c_.04 Length=3.7316 Units=m
New Line.LINE830 Bus1=807 Bus2=831 phases=3 Linecode=4c_.25 Length=19.2085 Units=m
New Line.LINE836 Bus1=811 Bus2=837 phases=3 Linecode=2c_.04 Length=5.0953 Units=m
New Line.LINE846 Bus1=821 Bus2=847 phases=3 Linecode=2c_.04 Length=0.5927 Units=m
New Line.LINE857 Bus1=831 Bus2=858 phases=3 Linecode=4c_25 Length=0.50064 Units=m
New Line.LINE862 Bus1=837 Bus2=863 phases=3 Linecode=2c_.04 Length=0.8252 Units=m
New Line.LINE872 Bus1=847 Bus2=873 phases=3 Linecode=2c_.04 Length=0.59924 Units=m
New Line.LINE879 Bus1=854 Bus2=880 phases=3 Linecode=2c_.04 Length=3.8384 Units=m
New Line.LINE884 Bus1=858 Bus2=885 phases=3 Linecode=4c_.06 Length=13.4479 Units=m
New Line.LINE890 Bus1=863 Bus2=891 phases=3 Linecode=2c_.04 Length=0.29629 Units=m
New Line.LINE900 Bus1=873 Bus2=901 phases=3 Linecode=2c_.04 Length=0.63915 Units=m
New Line.LINE910 Bus1=885 Bus2=911 phases=3 Linecode=4c_.06 Length=4.5829 Units=m
New Line.LINE917 Bus1=891 Bus2=918 phases=3 Linecode=2c_.04 Length=0.184 Units=m
New Line.LINE947 Bus1=918 Bus2=948 phases=3 Linecode=2c_.04 Length=0.30297 Units=m
New Line.LINE977 Bus1=948 Bus2=978 phases=3 Linecode=2c_.04 Length=0.5488 Units=m
New Line.LINE1008 Bus1=978 Bus2=1009 phases=3 Linecode=2c_.04 Length=0.21967 Units=m
New Line.LINE1037 Bus1=1006 Bus2=1038 phases=3 Linecode=2c_.04 Length=4.8005 Units=m
New Line.LINE1039 Bus1=1007 Bus2=1040 phases=3 Linecode=2c_.04 Length=4.6758 Units=m
New Line.LINE1042 Bus1=1009 Bus2=1043 phases=3 Linecode=2c_.04 Length=5.8102 Units=m
New Line.LINE1098 Bus1=1065 Bus2=1099 phases=3 Linecode=4c_.06 Length=6.6308 Units=m
New Line.LINE1110 Bus1=1076 Bus2=1111 phases=3 Linecode=2c_.04 Length=5.7671 Units=m
New Line.LINE1111 Bus1=1076 Bus2=1112 phases=3 Linecode=2c_.04 Length=6.6783 Units=m
New Line.LINE1117 Bus1=1080 Bus2=1118 phases=3 Linecode=2c_.04 Length=5.2177 Units=m
New Line.LINE1136 Bus1=1099 Bus2=1137 phases=3 Linecode=2c_.04 Length=8.4176 Units=m
New Line.LINE1145 Bus1=1108 Bus2=1146 phases=3 Linecode=2c_.04 Length=6.0387 Units=m
New Line.LINE1146 Bus1=1108 Bus2=1147 phases=3 Linecode=2c_.04 Length=4.0203 Units=m
New Line.LINE1155 Bus1=1120 Bus2=1156 phases=3 Linecode=2c_.04 Length=6.0191 Units=m
New Line.LINE1182 Bus1=1147 Bus2=1183 phases=3 Linecode=2c_.04 Length=6.335 Units=m
New Line.LINE1201 Bus1=1167 Bus2=1202 phases=3 Linecode=2c_.04 Length=4.5689 Units=m
New Line.LINE1203 Bus1=1168 Bus2=1204 phases=3 Linecode=2c_.04 Length=3.0538 Units=m
New Line.LINE1236 Bus1=1206 Bus2=1237 phases=3 Linecode=2c_.04 Length=3.2669 Units=m
New Line.LINE1273 Bus1=1246 Bus2=1274 phases=3 Linecode=2c_.04 Length=2.6936 Units=m
New Line.LINE1287 Bus1=1260 Bus2=1288 phases=3 Linecode=3c_.04 Length=4.2924 Units=m
New Line.LINE1289 Bus1=1261 Bus2=1290 phases=3 Linecode=3c_.04 Length=3.8604 Units=m
New Line.LINE1303 Bus1=1276 Bus2=1304 phases=3 Linecode=2c_.04 Length=2.8265 Units=m
New Line.LINE1319 Bus1=1294 Bus2=1320 phases=3 Linecode=2c_.04 Length=5.8506 Units=m
New Line.LINE1320 Bus1=1294 Bus2=1321 phases=3 Linecode=2c_.04 Length=5.8506 Units=m
New Line.LINE1324 Bus1=1298 Bus2=1325 phases=3 Linecode=2c_.04 Length=5.224 Units=m
New Line.LINE1333 Bus1=1307 Bus2=1334 phases=3 Linecode=3c_300_SAC Length=5.5351 Units=m
New Line.LINE1360 Bus1=1334 Bus2=1361 phases=3 Linecode=3c_300_SAC Length=0.34106 Units=m
New Line.LINE1380 Bus1=1355 Bus2=1381 phases=3 Linecode=2c_.04 Length=4.5288 Units=m
New Line.LINE1387 Bus1=1361 Bus2=1388 phases=3 Linecode=3c_300_SAC Length=0.55181 Units=m
New Line.LINE1413 Bus1=1388 Bus2=1414 phases=3 Linecode=3c_300_SAC Length=0.44647 Units=m
New Line.LINE1433 Bus1=1409 Bus2=1434 phases=3 Linecode=2c_.04 Length=5.0638 Units=m
New Line.LINE1434 Bus1=1409 Bus2=1435 phases=3 Linecode=2c_.04 Length=4.0698 Units=m
New Line.LINE1438 Bus1=1414 Bus2=1439 phases=3 Linecode=3c_300_SAC Length=0.59201 Units=m
New Line.LINE1457 Bus1=1435 Bus2=1458 phases=3 Linecode=2c_.04 Length=6.3638 Units=m
New Line.LINE1462 Bus1=1439 Bus2=1463 phases=3 Linecode=3c_300_SAC Length=1.2007 Units=m
New Line.LINE1484 Bus1=1463 Bus2=1485 phases=3 Linecode=3c_300_SAC Length=0.53818 Units=m
New Line.LINE1505 Bus1=1485 Bus2=1506 phases=3 Linecode=3c_300_SAC Length=0.62216 Units=m
New Line.LINE1526 Bus1=1506 Bus2=1527 phases=3 Linecode=3c_300_SAC Length=0.66743 Units=m
New Line.LINE1544 Bus1=1525 Bus2=1545 phases=3 Linecode=2c_.04 Length=3.7916 Units=m
New Line.LINE1545 Bus1=1525 Bus2=1546 phases=3 Linecode=2c_.04 Length=3.7916 Units=m
New Line.LINE1547 Bus1=1526 Bus2=1548 phases=3 Linecode=2c_.04 Length=7.6123 Units=m
New Line.LINE1548 Bus1=1526 Bus2=1549 phases=3 Linecode=2c_.04 Length=7.6123 Units=m
New Line.LINE1550 Bus1=1527 Bus2=1551 phases=3 Linecode=3c_300_SAC Length=5.7611 Units=m
New Line.LINE1569 Bus1=1551 Bus2=1570 phases=3 Linecode=3c_300_SAC Length=0.049739 Units=m
New Line.LINE1587 Bus1=1570 Bus2=1588 phases=3 Linecode=3c_300_SAC Length=7.2529 Units=m
New Line.LINE1598 Bus1=1581 Bus2=1599 phases=3 Linecode=2c_.04 Length=4.2036 Units=m
New Line.LINE1599 Bus1=1581 Bus2=1600 phases=3 Linecode=2c_.04 Length=4.2036 Units=m
New Line.LINE1607 Bus1=1588 Bus2=1608 phases=3 Linecode=3c_300_SAC Length=1.5118 Units=m
New Line.LINE1625 Bus1=1608 Bus2=1626 phases=3 Linecode=3c_300_SAC Length=1.9644 Units=m
New Line.LINE1636 Bus1=1619 Bus2=1637 phases=3 Linecode=2c_.04 Length=3.5267 Units=m
New Line.LINE1637 Bus1=1619 Bus2=1638 phases=3 Linecode=2c_.04 Length=3.5267 Units=m
New Line.LINE1644 Bus1=1626 Bus2=1645 phases=3 Linecode=3c_300_SAC Length=1.7069 Units=m
New Line.LINE1661 Bus1=1645 Bus2=1662 phases=3 Linecode=3c_300_SAC Length=3.2637 Units=m
New Line.LINE1670 Bus1=1654 Bus2=1671 phases=3 Linecode=2c_.04 Length=4.48 Units=m
New Line.LINE1671 Bus1=1654 Bus2=1672 phases=3 Linecode=2c_.04 Length=4.48 Units=m
New Line.LINE1678 Bus1=1662 Bus2=1679 phases=3 Linecode=3c_300_SAC Length=2.4688 Units=m
New Line.LINE1683 Bus1=1669 Bus2=1684 phases=3 Linecode=2c_.04 Length=5.3588 Units=m
New Line.LINE1692 Bus1=1679 Bus2=1693 phases=3 Linecode=3c_300_SAC Length=2.8333 Units=m
New Line.LINE1704 Bus1=1693 Bus2=1705 phases=3 Linecode=3c_300_SAC Length=2.4068 Units=m
New Line.LINE1715 Bus1=1705 Bus2=1716 phases=3 Linecode=3c_300_SAC Length=1.7022 Units=m
New Line.LINE1720 Bus1=1710 Bus2=1721 phases=3 Linecode=2c_.04 Length=4.8997 Units=m
New Line.LINE1721 Bus1=1710 Bus2=1722 phases=3 Linecode=2c_.04 Length=4.8997 Units=m
New Line.LINE1728 Bus1=1716 Bus2=1729 phases=3 Linecode=3c_300_SAC Length=0.867 Units=m
New Line.LINE1737 Bus1=1729 Bus2=1738 phases=3 Linecode=3c_240_XC Length=0.42882 Units=m
New Line.LINE1745 Bus1=1738 Bus2=1746 phases=3 Linecode=3c_240_XC Length=0.18146 Units=m
New Line.LINE1746 Bus1=1740 Bus2=1747 phases=3 Linecode=2c_.04 Length=5.3444 Units=m
New Line.LINE1752 Bus1=1746 Bus2=1753 phases=3 Linecode=3c_240_XC Length=0.22607 Units=m
New Line.LINE1757 Bus1=1753 Bus2=1758 phases=3 Linecode=3c_240_XC Length=0.34477 Units=m
New Line.LINE1761 Bus1=1758 Bus2=1762 phases=3 Linecode=3c_240_XC Length=0.67958 Units=m
New Line.LINE1764 Bus1=1762 Bus2=1765 phases=3 Linecode=3c_240_XC Length=0.61364 Units=m
New Line.LINE1767 Bus1=1765 Bus2=1768 phases=3 Linecode=3c_240_XC Length=1.331 Units=m
New Line.LINE1770 Bus1=1768 Bus2=1771 phases=3 Linecode=3c_240_XC Length=0.62281 Units=m
New Line.LINE1773 Bus1=1771 Bus2=1774 phases=3 Linecode=3c_240_XC Length=0.66897 Units=m
New Line.LINE1776 Bus1=1774 Bus2=1777 phases=3 Linecode=3c_240_XC Length=0.65533 Units=m
New Line.LINE1779 Bus1=1777 Bus2=1780 phases=3 Linecode=3c_240_XC Length=0.59512 Units=m
New Line.LINE1782 Bus1=1780 Bus2=1783 phases=3 Linecode=3c_240_XC Length=0.86442 Units=m
New Line.LINE1785 Bus1=1783 Bus2=1786 phases=3 Linecode=3c_240_SAC_XC Length=2.8472 Units=m
New Line.LINE1788 Bus1=1786 Bus2=1789 phases=3 Linecode=3c_240_SAC_XC Length=6.2019 Units=m
New Line.LINE1809 Bus1=1807 Bus2=1810 phases=3 Linecode=3c_95_SAC_XC Length=0.13448 Units=m
New Line.LINE1813 Bus1=1810 Bus2=1814 phases=3 Linecode=3c_95_SAC_XC Length=0.074518 Units=m
New Line.LINE1817 Bus1=1814 Bus2=1818 phases=3 Linecode=3c_95_SAC_XC Length=0.089945 Units=m
New Line.LINE1821 Bus1=1818 Bus2=1822 phases=3 Linecode=3c_95_SAC_XC Length=0.62141 Units=m
New Line.LINE1826 Bus1=1822 Bus2=1827 phases=3 Linecode=3c_95_SAC_XC Length=1.7735 Units=m
New Line.LINE1832 Bus1=1827 Bus2=1833 phases=3 Linecode=35_SAC_PC Length=0.29566 Units=m
New Line.LINE1838 Bus1=1833 Bus2=1839 phases=3 Linecode=35_SAC_PC Length=0.12794 Units=m
New Line.LINE1844 Bus1=1839 Bus2=1845 phases=3 Linecode=35_SAC_PC Length=0.12331 Units=m
New Line.LINE1850 Bus1=1845 Bus2=1851 phases=3 Linecode=35_SAC_PC Length=0.126 Units=m
New Line.LINE1856 Bus1=1851 Bus2=1857 phases=3 Linecode=35_SAC_PC Length=0.1345 Units=m
New Line.LINE1862 Bus1=1857 Bus2=1863 phases=3 Linecode=35_SAC_PC Length=0.14046 Units=m
New Line.LINE1865 Bus1=1859 Bus2=1866 phases=3 Linecode=3c_95_SAC_XC Length=0.66655 Units=m
New Line.LINE1871 Bus1=1863 Bus2=1872 phases=3 Linecode=35_SAC_PC Length=0.25992 Units=m
New Line.LINE1874 Bus1=1866 Bus2=1875 phases=3 Linecode=3c_95_SAC_XC Length=0.669 Units=m
New Line.LINE1880 Bus1=1872 Bus2=1881 phases=3 Linecode=35_SAC_PC Length=0.33842 Units=m
New Line.LINE1883 Bus1=1875 Bus2=1884 phases=3 Linecode=3c_95_SAC_XC Length=2.0005 Units=m
New Line.LINE1889 Bus1=1881 Bus2=1890 phases=3 Linecode=35_SAC_PC Length=7.6528 Units=m
New Line.LINE1893 Bus1=1884 Bus2=1894 phases=3 Linecode=35_SAC_PC Length=0.20308 Units=m
New Line.LINE1899 Bus1=1890 Bus2=1900 phases=3 Linecode=35_SAC_PC Length=0.13509 Units=m
New Line.LINE1903 Bus1=1894 Bus2=1904 phases=3 Linecode=35_SAC_PC Length=0.06712 Units=m
New Line.LINE1910 Bus1=1900 Bus2=1911 phases=3 Linecode=35_SAC_PC Length=0.096165 Units=m
New Line.LINE1914 Bus1=1904 Bus2=1915 phases=3 Linecode=35_SAC_PC Length=0.077832 Units=m
New Line.LINE1921 Bus1=1911 Bus2=1922 phases=3 Linecode=35_SAC_PC Length=0.079405 Units=m
New Line.LINE1925 Bus1=1915 Bus2=1926 phases=3 Linecode=35_SAC_PC Length=0.14934 Units=m
New Line.LINE1932 Bus1=1922 Bus2=1933 phases=3 Linecode=35_SAC_PC Length=0.082037 Units=m
New Line.LINE1939 Bus1=1926 Bus2=1940 phases=3 Linecode=35_SAC_PC Length=0.944 Units=m
New Line.LINE1946 Bus1=1933 Bus2=1947 phases=3 Linecode=35_SAC_PC Length=0.096026 Units=m
New Line.LINE1956 Bus1=1940 Bus2=1957 phases=3 Linecode=35_SAC_PC Length=0.11261 Units=m
New Line.LINE1962 Bus1=1947 Bus2=1963 phases=3 Linecode=35_SAC_PC Length=0.1089 Units=m
New Line.LINE1974 Bus1=1957 Bus2=1975 phases=3 Linecode=35_SAC_PC Length=0.11545 Units=m
New Line.LINE1978 Bus1=1963 Bus2=1979 phases=3 Linecode=35_SAC_PC Length=1.6759 Units=m
New Line.LINE1990 Bus1=1975 Bus2=1991 phases=3 Linecode=35_SAC_PC Length=0.13412 Units=m
New Line.LINE1992 Bus1=1977 Bus2=1993 phases=3 Linecode=35_SAC_PSC Length=6.6907 Units=m
New Line.LINE1993 Bus1=1977 Bus2=1994 phases=3 Linecode=35_SAC_PSC Length=17.9923 Units=m
New Line.LINE1996 Bus1=1979 Bus2=1997 phases=3 Linecode=35_SAC_PC Length=7.0136 Units=m
New Line.LINE1997 Bus1=1979 Bus2=1998 phases=3 Linecode=35_SAC_PC Length=5.8575 Units=m
New Line.LINE2009 Bus1=1991 Bus2=2010 phases=3 Linecode=35_SAC_PC Length=0.19762 Units=m
New Line.LINE2011 Bus1=1993 Bus2=2012 phases=3 Linecode=35_SAC_PSC Length=7.2737 Units=m
New Line.LINE2012 Bus1=1993 Bus2=2013 phases=3 Linecode=35_SAC_PSC Length=21.2435 Units=m
New Line.LINE2013 Bus1=1993 Bus2=2014 phases=3 Linecode=35_SAC_PSC Length=4.352 Units=m
New Line.LINE2014 Bus1=1993 Bus2=2015 phases=3 Linecode=35_SAC_PSC Length=4.6763 Units=m
New Line.LINE2028 Bus1=2010 Bus2=2029 phases=3 Linecode=35_SAC_PC Length=13.3176 Units=m
New Line.LINE2033 Bus1=2014 Bus2=2034 phases=3 Linecode=35_SAC_PSC Length=4.0137 Units=m
New Line.LINE2253 Bus1=2246 Bus2=2254 phases=3 Linecode=35_SAC_PC Length=31.0764 Units=m
New Line.LINE2254 Bus1=2246 Bus2=2255 phases=3 Linecode=35_SAC_PC Length=24.2773 Units=m
New Line.LINE2255 Bus1=2246 Bus2=2256 phases=3 Linecode=35_SAC_PC Length=31.1183 Units=m
New Line.LINE2256 Bus1=2246 Bus2=2257 phases=3 Linecode=35_SAC_PC Length=31.4189 Units=m
New Line.LINE2257 Bus1=2246 Bus2=2258 phases=3 Linecode=35_SAC_PC Length=4.9646 Units=m
New Line.LINE2258 Bus1=2246 Bus2=2259 phases=3 Linecode=35_SAC_PC Length=20.4021 Units=m
New Line.LINE2259 Bus1=2246 Bus2=2260 phases=3 Linecode=35_SAC_PC Length=24.4949 Units=m
New Line.LINE2260 Bus1=2246 Bus2=2261 phases=3 Linecode=35_SAC_PC Length=30.9248 Units=m
New Line.LINE2261 Bus1=2246 Bus2=2262 phases=3 Linecode=35_SAC_PC Length=19.9457 Units=m
New Line.LINE2262 Bus1=2246 Bus2=2263 phases=3 Linecode=35_SAC_PC Length=24.1998 Units=m
New Line.LINE2263 Bus1=2246 Bus2=2264 phases=3 Linecode=35_SAC_PC Length=31.3747 Units=m
New Line.LINE2264 Bus1=2246 Bus2=2265 phases=3 Linecode=35_SAC_PC Length=7.212 Units=m
New Line.LINE2265 Bus1=2246 Bus2=2266 phases=3 Linecode=35_SAC_PC Length=31.2339 Units=m
New Line.LINE2266 Bus1=2246 Bus2=2267 phases=3 Linecode=35_SAC_PC Length=7.0396 Units=m
New Line.LINE2267 Bus1=2246 Bus2=2268 phases=3 Linecode=35_SAC_PC Length=5.2095 Units=m
New Line.LINE2268 Bus1=2246 Bus2=2269 phases=3 Linecode=35_SAC_PC Length=24.4363 Units=m
New Line.LINECmpd_0 Bus1=1581 Bus2=1803 phases=3 Linecode=2c_.04 Length=30.872438 Units=m
New Line.LINECmpd_1 Bus1=703 Bus2=854 phases=3 Linecode=2c_.04 Length=11.72903 Units=m
New Line.LINECmpd_2 Bus1=1923 Bus2=2301 phases=3 Linecode=35_SAC_PC Length=15.000475 Units=m
New Line.LINECmpd_3 Bus1=2013 Bus2=2163 phases=3 Linecode=35_SAC_PSC Length=13.625238 Units=m
New Line.LINECmpd_4 Bus1=1923 Bus2=2430 phases=3 Linecode=35_SAC_PC Length=18.332372 Units=m
New Line.LINECmpd_5 Bus1=1120 Bus2=1710 phases=3 Linecode=2c_.04 Length=17.749585 Units=m
New Line.LINECmpd_6 Bus1=711 Bus2=1197 phases=3 Linecode=35_SAC_XC Length=14.993958 Units=m
New Line.LINECmpd_7 Bus1=1307 Bus2=1553 phases=3 Linecode=35_SAC_PC Length=12.96614 Units=m
New Line.LINECmpd_8 Bus1=1246 Bus2=1525 phases=3 Linecode=2c_.04 Length=7.73502 Units=m
New Line.LINECmpd_9 Bus1=244 Bus2=293 phases=3 Linecode=2c_.04 Length=14.129096 Units=m
New Line.LINECmpd_10 Bus1=1147 Bus2=1666 phases=3 Linecode=2c_.04 Length=27.03932 Units=m
New Line.LINECmpd_11 Bus1=1807 Bus2=1923 phases=3 Linecode=3c_95_SAC_XC Length=44.505932 Units=m
New Line.LINECmpd_12 Bus1=1167 Bus2=1725 phases=3 Linecode=2c_.04 Length=20.004322 Units=m
New Line.LINECmpd_13 Bus1=1261 Bus2=1581 phases=3 Linecode=2c_.04 Length=9.363263 Units=m
New Line.LINECmpd_14 Bus1=266 Bus2=680 phases=3 Linecode=2c_.04 Length=16.216823 Units=m
New Line.LINECmpd_15 Bus1=1355 Bus2=1603 phases=3 Linecode=2c_.04 Length=14.57775 Units=m
New Line.LINECmpd_16 Bus1=831 Bus2=1307 phases=3 Linecode=3c_300_SAC Length=16.55985 Units=m
New Line.LINECmpd_17 Bus1=814 Bus2=1120 phases=3 Linecode=2c_.04 Length=12.598754 Units=m
New Line.LINECmpd_18 Bus1=1009 Bus2=1669 phases=3 Linecode=2c_.04 Length=12.13176 Units=m
New Line.LINECmpd_19 Bus1=1137 Bus2=1355 phases=3 Linecode=2c_.04 Length=2.13545 Units=m
New Line.LINECmpd_20 Bus1=1076 Bus2=1740 phases=3 Linecode=2c_.04 Length=20.647359 Units=m
New Line.LINECmpd_21 Bus1=1859 Bus2=1977 phases=3 Linecode=35_SAC_PSC Length=11.696283 Units=m
New Line.LINECmpd_22 Bus1=361 Bus2=546 phases=3 Linecode=2c_.04 Length=9.402064 Units=m
New Line.LINECmpd_23 Bus1=1526 Bus2=1761 phases=3 Linecode=2c_.04 Length=22.39228 Units=m
New Line.LINECmpd_24 Bus1=911 Bus2=1033 phases=3 Linecode=4c_.04 Length=25.6434 Units=m
New Line.LINECmpd_25 Bus1=1525 Bus2=1736 phases=3 Linecode=2c_.04 Length=21.41602 Units=m
New Line.LINECmpd_26 Bus1=854 Bus2=1167 phases=3 Linecode=2c_.04 Length=15.11673 Units=m
New Line.LINECmpd_27 Bus1=2190 Bus2=2246 phases=3 Linecode=35_SAC_PC Length=25.97547 Units=m
New Line.LINECmpd_28 Bus1=789 Bus2=1076 phases=3 Linecode=2c_.04 Length=9.60607 Units=m
New Line.LINECmpd_29 Bus1=711 Bus2=1085 phases=3 Linecode=35_SAC_XC Length=25.60652 Units=m
New Line.LINECmpd_30 Bus1=703 Bus2=735 phases=3 Linecode=4c_.25 Length=21.5146 Units=m
New Line.LINECmpd_31 Bus1=1789 Bus2=1859 phases=3 Linecode=3c_95_SAC_XC Length=12.74489 Units=m
New Line.LINECmpd_32 Bus1=1065 Bus2=1409 phases=3 Linecode=2c_.04 Length=16.54123 Units=m
New Line.LINECmpd_33 Bus1=749 Bus2=1206 phases=3 Linecode=2c_.04 Length=10.820667 Units=m
New Line.LINECmpd_34 Bus1=646 Bus2=1403 phases=3 Linecode=2c_.04 Length=19.576104 Units=m
New Line.LINECmpd_35 Bus1=1260 Bus2=1619 phases=3 Linecode=2c_.04 Length=9.423369 Units=m
New Line.LINECmpd_36 Bus1=729 Bus2=1125 phases=3 Linecode=2c_.04 Length=17.34189 Units=m
New Line.LINECmpd_37 Bus1=773 Bus2=1049 phases=3 Linecode=2c_.04 Length=23.768618 Units=m
New Line.LINECmpd_38 Bus1=807 Bus2=1108 phases=3 Linecode=2c_.04 Length=17.24963 Units=m
New Line.LINECmpd_39 Bus1=1049 Bus2=1261 phases=3 Linecode=2c_.04 Length=3.147886 Units=m
New Line.LINECmpd_40 Bus1=1298 Bus2=1522 phases=3 Linecode=2c_.04 Length=10.019005 Units=m
New Line.LINECmpd_41 Bus1=814 Bus2=1080 phases=3 Linecode=2c_.04 Length=2.59796 Units=m
New Line.LINECmpd_42 Bus1=407 Bus2=679 phases=3 Linecode=2c_.04 Length=13.898576 Units=m
New Line.LINECmpd_43 Bus1=177 Bus2=215 phases=3 Linecode=4c_.25 Length=33.9097 Units=m
New Line.LINECmpd_44 Bus1=349 Bus2=646 phases=3 Linecode=2c_.04 Length=7.572651 Units=m
New Line.LINECmpd_45 Bus1=217 Bus2=407 phases=3 Linecode=2c_.04 Length=16.206106 Units=m
New Line.LINECmpd_46 Bus1=1307 Bus2=1554 phases=3 Linecode=35_SAC_PC Length=14.06443 Units=m
New Line.LINECmpd_47 Bus1=1007 Bus2=1445 phases=3 Linecode=2c_.04 Length=10.37273 Units=m
New Line.LINECmpd_48 Bus1=293 Bus2=390 phases=3 Linecode=2c_.04 Length=2.235158 Units=m
New Line.LINECmpd_49 Bus1=1307 Bus2=1664 phases=3 Linecode=35_SAC_PC Length=16.65351 Units=m
New Line.LINECmpd_50 Bus1=385 Bus2=576 phases=3 Linecode=4c_.12 Length=11.73658 Units=m
New Line.LINECmpd_51 Bus1=440 Bus2=601 phases=3 Linecode=2c_.04 Length=11.987708 Units=m
New Line.LINECmpd_52 Bus1=1276 Bus2=1526 phases=3 Linecode=2c_.04 Length=8.8541 Units=m
New Line.LINECmpd_53 Bus1=2190 Bus2=2253 phases=3 Linecode=35_SAC_PC Length=25.9419 Units=m
New Line.LINECmpd_54 Bus1=390 Bus2=699 phases=3 Linecode=2c_.04 Length=9.589128 Units=m
New Line.LINECmpd_55 Bus1=1710 Bus2=1784 phases=3 Linecode=2c_.04 Length=15.84442 Units=m
New Line.LINECmpd_56 Bus1=1080 Bus2=1654 phases=3 Linecode=2c_.04 Length=19.379128 Units=m
New Line.LINECmpd_57 Bus1=277 Bus2=465 phases=3 Linecode=2c_.04 Length=18.561827 Units=m
New Line.LINECmpd_58 Bus1=1137 Bus2=1298 phases=3 Linecode=2c_.04 Length=11.45158 Units=m
New Line.LINECmpd_59 Bus1=699 Bus2=1294 phases=3 Linecode=2c_.04 Length=24.949057 Units=m
New Line.LINECmpd_60 Bus1=441 Bus2=485 phases=3 Linecode=2c_.04 Length=15.1648 Units=m
New Line.LINECmpd_61 Bus1=504 Bus2=773 phases=3 Linecode=4c_.04 Length=36.333523 Units=m
New Line.LINECmpd_62 Bus1=471 Bus2=732 phases=3 Linecode=2c_.04 Length=13.272528 Units=m
New Line.LINECmpd_63 Bus1=1307 Bus2=1717 phases=3 Linecode=35_SAC_PC Length=18.22176 Units=m
New Line.LINECmpd_64 Bus1=901 Bus2=1088 phases=3 Linecode=2c_.04 Length=8.242282 Units=m
New Line.LINECmpd_65 Bus1=1435 Bus2=1751 phases=3 Linecode=2c_.04 Length=21.63875 Units=m
New Line.LINECmpd_66 Bus1=177 Bus2=217 phases=3 Linecode=2c_.04 Length=10.074 Units=m
New Line.LINECmpd_67 Bus1=1923 Bus2=2190 phases=3 Linecode=3c_95_SAC_XC Length=15.355713 Units=m
New Line.LINECmpd_68 Bus1=440 Bus2=600 phases=3 Linecode=2c_.04 Length=8.008614 Units=m
New Line.LINECmpd_69 Bus1=1789 Bus2=1807 phases=3 Linecode=3c_240_SAC_XC Length=18.13877 Units=m
New Line.LINECmpd_70 Bus1=1006 Bus2=1280 phases=3 Linecode=2c_.04 Length=13.52229 Units=m
New Line.LINECmpd_71 Bus1=1033 Bus2=1246 phases=3 Linecode=2c_.04 Length=2.19812 Units=m
New Line.LINECmpd_72 Bus1=750 Bus2=786 phases=3 Linecode=4c_.25 Length=22.6451 Units=m