New Line.LINE177_163 Bus1=177_160 Bus2=177_164 phases=3 Linecode=4c_.25 Length=3.6944 Units=m
New Line.LINE177_166 Bus1=177_164 Bus2=177_167 phases=3 Linecode=25_SAC_XC Length=0.49962 Units=m
New Line.LINE177_221 Bus1=177_217 Bus2=177_222 phases=3 Linecode=2c_.04 Length=4.7434 Units=m
New Line.LINE177_230 Bus1=177_226 Bus2=177_231 phases=3 Linecode=25_SAC_XC Length=4.8122 Units=m
New Line.LINE177_236 Bus1=177_231 Bus2=177_237 phases=3 Linecode=25_SAC_XC Length=4.5113 Units=m
New Line.LINE177_237 Bus1=177_231 Bus2=177_238 phases=3 Linecode=25_SAC_XC Length=4.5113 Units=m
New Line.LINE177_276 Bus1=177_270 Bus2=177_277 phases=3 Linecode=2c_.04 Length=5.6374 Units=m
New Line.LINE177_284 Bus1=177_277 Bus2=177_285 phases=3 Linecode=2c_.04 Length=4.0078 Units=m
New Line.LINE177_358 Bus1=177_349 Bus2=177_359 phases=3 Linecode=2c_.04 Length=3.7519 Units=m
New Line.LINE177_369 Bus1=177_361 Bus2=177_370 phases=3 Linecode=2c_.04 Length=4.2429 Units=m
New Line.LINE177_393 Bus1=177_385 Bus2=177_394 phases=3 Linecode=4c_.25 Length=2.7498 Units=m
New Line.LINE177_399 Bus1=177_390 Bus2=177_400 phases=3 Linecode=2c_.04 Length=3.7977 Units=m
New Line.LINE177_416 Bus1=177_407 Bus2=177_417 phases=3 Linecode=2c_.04 Length=5.0462 Units=m
New Line.LINE177_439 Bus1=177_428 Bus2=177_440 phases=3 Linecode=2c_.04 Length=3.6921 Units=m
New Line.LINE177_440 Bus1=177_428 Bus2=177_441 phases=3 Linecode=4c_25 Length=3.7985 Units=m
New Line.LINE177_455 Bus1=177_441 Bus2=177_456 phases=3 Linecode=4c_25 Length=11.9206 Units=m
New Line.LINE177_470 Bus1=177_456 Bus2=177_471 phases=3 Linecode=2c_.04 Length=5.1083 Units=m
New Line.LINE177_485 Bus1=177_471 Bus2=177_486 phases=3 Linecode=2c_.04 Length=4.9069 Units=m
New Line.LINE177_562 Bus1=177_546 Bus2=177_563 phases=3 Linecode=2c_.04 Length=5.7062 Units=m
New Line.LINE177_563 Bus1=177_546 Bus2=177_564 phases=3 Linecode=2c_.04 Length=5.7062 Units=m
New Line.LINE177_661 Bus1=177_646 Bus2=177_662 phases=3 Linecode=2c_.04 Length=3.3098 Units=m
New Line.LINE177_662 Bus1=177_646 Bus2=177_663 phases=3 Linecode=2c_.04 Length=3.3098 Units=m
New Line.LINE177_712 Bus1=177_699 Bus2=177_713 phases=3 Linecode=2c_.04 Length=3.0635 Units=m
New Line.LINE177_713 Bus1=177_699 Bus2=177_714 phases=3 Linecode=2c_.04 Length=3.0635 Units=m
New Line.LINE177_728 Bus1=177_711 Bus2=177_729 phases=3 Linecode=4c_.12 Length=1.5126 Units=m
New Line.LINE177_748 Bus1=177_735 Bus2=177_749 phases=3 Linecode=4c_.04 Length=6.2096 Units=m
New Line.LINE177_749 Bus1=177_735 Bus2=177_750 phases=3 Linecode=4c_.25 Length=9.6528 Units=m
New Line.LINE177_768 Bus1=177_750 Bus2=177_769 phases=3 Linecode=4c_.25 Length=1.5967 Units=m
New Line.LINE177_788 Bus1=177_769 Bus2=177_789 phases=3 Linecode=4c_.04 Length=10.7131 Units=m
New Line.LINE177_806 Bus1=177_786 Bus2=177_807 phases=3 Linecode=4c_.25 Length=11.3485 Units=m
New Line.LINE177_810 Bus1=177_789 Bus2=177_811 phases=3 Linecode=4c_.04 Length=2.3127 Units=m
New Line.LINE177_830 Bus1=177_807 Bus2=177_831 phases=3 Linecode=4c_.25 Length=19.2085 Units=m
New Line.LINE177_857 Bus1=177_831 Bus2=177_858 phases=3 Linecode=4c_25 Length=0.50064 Units=m
New Line.LINE177_879 Bus1=177_854 Bus2=177_880 phases=3 Linecode=2c_.04 Length=3.8384 Units=m
New Line.LINE177_1037 Bus1=177_1006 Bus2=177_1038 phases=3 Linecode=2c_.04 Length=4.8005 Units=m
New Line.LINE177_1039 Bus1=177_1007 Bus2=177_1040 phases=3 Linecode=2c_.04 Length=4.6758 Units=m
New Line.LINE177_1042 Bus1=177_1009 Bus2=177_1043 phases=3 Linecode=2c_.04 Length=5.8102 Units=m
New Line.LINE177_1098 Bus1=177_1065 Bus2=177_1099 phases=3 Linecode=4c_.06 Length=6.6308 Units=m
New Line.LINE177_1110 Bus1=177_1076 Bus2=177_1111 phases=3 Linecode=2c_.04 Length=5.7671 Units=m
New Line.LINE177_1111 Bus1=177_1076 Bus2=177_1112 phases=3 Linecode=2c_.04 Length=6.6783 Units=m
New Line.LINE177_1117 Bus1=177_1080 Bus2=177_1118 phases=3 Linecode=2c_.04 Length=5.2177 Units=m
New Line.LINE177_1136 Bus1=177_1099 Bus2=177_1137 phases=3 Linecode=2c_.04 Length=8.4176 Units=m
New Line.LINE177_1145 Bus1=177_1108 Bus2=177_1146 phases=3 Linecode=2c_.04 Length=6.0387 Units=m
New Line.LINE177_1146 Bus1=177_1108 Bus2=177_1147 phases=3 Linecode=2c_.04 Length=4.0203 Units=m
New Line.LINE177_1155 Bus1=177_1120 Bus2=177_1156 phases=3 Linecode=2c_.04 Length=6.0191 Units=m
New Line.LINE177_1182 Bus1=177_1147 Bus2=177_1183 phases=3 Linecode=2c_.04 Length=6.335 Units=m
New Line.LINE177_1201 Bus1=177_1167 Bus2=177_1202 phases=3 Linecode=2c_.04 Length=4.5689 Units=m
New Line.LINE177_1203 Bus1=177_1168 Bus2=177_1204 phases=3 Linecode=2c_.04 Length=3.0538 Units=m
New Line.LINE177_1236 Bus1=177_1206 Bus2=177_1237 phases=3 Linecode=2c_.04 Length=3.2669 Units=m
New Line.LINE177_1273 Bus1=177_1246 Bus2=177_1274 phases=3 Linecode=2c_.04 Length=2.6936 Units=m
New Line.LINE177_1287 Bus1=177_1260 Bus2=177_1288 phases=3 Linecode=3c_.04 Length=4.2924 Units=m
New Line.LINE177_1289 Bus1=177_1261 Bus2=177_1290 phases=3 Linecode=3c_.04 Length=3.8604 Units=m
New Line.LINE177_1303 Bus1=177_1276 Bus2=177_1304 phases=3 Linecode=2c_.04 Length=2.8265 Units=m
New Line.LINE177_1319 Bus1=177_1294 Bus2=177_1320 phases=3 Linecode=2c_.04 Length=5.8506 Units=m
New Line.LINE177_1320 Bus1=177_1294 Bus2=177_1321 phases=3 Linecode=2c_.04 Length=5.8506 Units=m
New Line.LINE177_1324 Bus1=177_1298 Bus2=177_1325 phases=3 Linecode=2c_.04 Length=5.224 Units=m
New Line.LINE177_1380 Bus1=177_1355 Bus2=177_1381 phases=3 Linecode=2c_.04 Length=4.5288 Units=m
New Line.LINE177_1433 Bus1=177_1409 Bus2=177_1434 phases=3 Linecode=2c_.04 Length=5.0638 Units=m
New Line.LINE177_1434 Bus1=177_1409 Bus2=177_1435 phases=3 Linecode=2c_.04 Length=4.0698 Units=m
New Line.LINE177_1457 Bus1=177_1435 Bus2=177_1458 phases=3 Linecode=2c_.04 Length=6.3638 Units=m
New Line.LINE177_1544 Bus1=177_1525 Bus2=177_1545 phases=3 Linecode=2c_.04 Length=3.7916 Units=m
New Line.LINE177_1545 Bus1=177_1525 Bus2=177_1546 phases=3 Linecode=2c_.04 Length=3.7916 Units=m
New Line.LINE177_1547 Bus1=177_1526 Bus2=177_1548 phases=3 Linecode=2c_.04 Length=7.6123 Units=m
New Line.LINE177_1548 Bus1=177_1526 Bus2=177_1549 phases=3 Linecode=2c_.04 Length=7.6123 Units=m
New Line.LINE177_1598 Bus1=177_1581 Bus2=177_1599 phases=3 Linecode=2c_.04 Length=4.2036 Units=m
New Line.LINE177_1599 Bus1=177_1581 Bus2=177_1600 phases=3 Linecode=2c_.04 Length=4.2036 Units=m
New Line.LINE177_1636 Bus1=177_1619 Bus2=177_1637 phases=3 Linecode=2c_.04 Length=3.5267 Units=m
New Line.LINE177_1637 Bus1=177_1619 Bus2=177_1638 phases=3 Linecode=2c_.04 Length=3.5267 Units=m
New Line.LINE177_1670 Bus1=177_1654 Bus2=177_1671 phases=3 Linecode=2c_.04 Length=4.48 Units=m
New Line.LINE177_1671 Bus1=177_1654 Bus2=177_1672 phases=3 Linecode=2c_.04 Length=4.48 Units=m
New Line.LINE177_1683 Bus1=177_1669 Bus2=177_1684 phases=3 Linecode=2c_.04 Length=5.3588 Units=m
New Line.LINE177_1720 Bus1=177_1710 Bus2=177_1721 phases=3 Linecode=2c_.04 Length=4.8997 Units=m
New Line.LINE177_1721 Bus1=177_1710 Bus2=177_1722 phases=3 Linecode=2c_.04 Length=4.8997 Units=m
New Line.LINE177_1746 Bus1=177_1740 Bus2=177_1747 phases=3 Linecode=2c_.04 Length=5.3444 Units=m
New Line.LINE177_1992 Bus1=177_1977 Bus2=177_1993 phases=3 Linecode=35_SAC_PSC Length=6.6907 Units=m
New Line.LINE177_1993 Bus1=177_1977 Bus2=177_1994 phases=3 Linecode=35_SAC_PSC Length=17.9923 Units=m
New Line.LINE177_1996 Bus1=177_1979 Bus2=177_1997 phases=3 Linecode=35_SAC_PC Length=7.0136 Units=m
New Line.LINE177_1997 Bus1=177_1979 Bus2=177_1998 phases=3 Linecode=35_SAC_PC Length=5.8575 Units=m
New Line.LINE177_2011 Bus1=177_1993 Bus2=177_2012 phases=3 Linecode=35_SAC_PSC Length=7.2737 Units=m
New Line.LINE177_2012 Bus1=177_1993 Bus2=177_2013 phases=3 Linecode=35_SAC_PSC Length=21.2435 Units=m
New Line.LINE177_2013 Bus1=177_1993 Bus2=177_2014 phases=3 Linecode=35_SAC_PSC Length=4.352 Units=m
New Line.LINE177_2014 Bus1=177_1993 Bus2=177_2015 phases=3 Linecode=35_SAC_PSC Length=4.6763 Units=m
New Line.LINE177_2033 Bus1=177_2014 Bus2=177_2034 phases=3 Linecode=35_SAC_PSC Length=4.0137 Units=m
New Line.LINE177_2253 Bus1=177_2246 Bus2=177_2254 phases=3 Linecode=35_SAC_PC Length=31.0764 Units=m
New Line.LINE177_2254 Bus1=177_2246 Bus2=177_2255 phases=3 Linecode=35_SAC_PC Length=24.2773 Units=m
New Line.LINE177_2255 Bus1=177_2246 Bus2=177_2256 phases=3 Linecode=35_SAC_PC Length=31.1183 Units=m
New Line.LINE177_2256 Bus1=177_2246 Bus2=177_2257 phases=3 Linecode=35_SAC_PC Length=31.4189 Units=m
New Line.LINE177_2257 Bus1=177_2246 Bus2=177_2258 phases=3 Linecode=35_SAC_PC Length=4.9646 Units=m
New Line.LINE177_2258 Bus1=177_2246 Bus2=177_2259 phases=3 Linecode=35_SAC_PC Length=20.4021 Units=m
New Line.LINE177_2259 Bus1=177_2246 Bus2=177_2260 phases=3 Linecode=35_SAC_PC Length=24.4949 Units=m
New Line.LINE177_2260 Bus1=177_2246 Bus2=177_2261 phases=3 Linecode=35_SAC_PC Length=30.9248 Units=m
New Line.LINE177_2261 Bus1=177_2246 Bus2=177_2262 phases=3 Linecode=35_SAC_PC Length=19.9457 Units=m
New Line.LINE177_2262 Bus1=177_2246 Bus2=177_2263 phases=3 Linecode=35_SAC_PC Length=24.1998 Units=m
New Line.LINE177_2263 Bus1=177_2246 Bus2=177_2264 phases=3 Linecode=35_SAC_PC Length=31.3747 Units=m
New Line.LINE177_2264 Bus1=177_2246 Bus2=177_2265 phases=3 Linecode=35_SAC_PC Length=7.212 Units=m
New Line.LINE177_2265 Bus1=177_2246 Bus2=177_2266 phases=3 Linecode=35_SAC_PC Length=31.2339 Units=m
New Line.LINE177_2266 Bus1=177_2246 Bus2=177_2267 phases=3 Linecode=35_SAC_PC Length=7.0396 Units=m
New Line.LINE177_2267 Bus1=177_2246 Bus2=177_2268 phases=3 Linecode=35_SAC_PC Length=5.2095 Units=m
New Line.LINE177_2268 Bus1=177_2246 Bus2=177_2269 phases=3 Linecode=35_SAC_PC Length=24.4363 Units=m
New Line.LINE177_Cmpd_0 Bus1=177_217 Bus2=177_407 phases=3 Linecode=2c_.04 Length=16.206106 Units=m
New Line.LINE177_Cmpd_1 Bus1=177_504 Bus2=177_773 phases=3 Linecode=4c_.04 Length=36.333523 Units=m
New Line.LINE177_Cmpd_2 Bus1=177_699 Bus2=177_1294 phases=3 Linecode=2c_.04 Length=24.949057 Units=m
New Line.LINE177_Cmpd_3 Bus1=177_646 Bus2=177_1403 phases=3 Linecode=2c_.04 Length=19.576104 Units=m
New Line.LINE177_Cmpd_4 Bus1=177_30 Bus2=177_160 phases=3 Linecode=4c_.3_AS Length=118.584909 Units=m
New Line.LINE177_Cmpd_5 Bus1=177_749 Bus2=177_1168 phases=3 Linecode=2c_.04 Length=10.79116 Units=m
New Line.LINE177_Cmpd_6 Bus1=177_1147 Bus2=177_1666 phases=3 Linecode=2c_.04 Length=27.03932 Units=m
New Line.LINE177_Cmpd_7 Bus1=177_901 Bus2=177_1162 phases=3 Linecode=2c_.04 Length=11.47503 Units=m
New Line.LINE177_Cmpd_8 Bus1=177_1167 Bus2=177_1725 phases=3 Linecode=2c_.04 Length=20.004322 Units=m
New Line.LINE177_Cmpd_9 Bus1=177_485 Bus2=177_685 phases=3 Linecode=2c_.04 Length=13.244386 Units=m
New Line.LINE177_Cmpd_10 Bus1=177_1827 Bus2=177_1979 phases=3 Linecode=35_SAC_PC Length=11.472533 Units=m
New Line.LINE177_Cmpd_11 Bus1=177_1 Bus2=177_30 phases=3 Linecode=3c_300_SAC_XC Length=13.997696 Units=m
New Line.LINE177_Cmpd_12 Bus1=177_1526 Bus2=177_1761 phases=3 Linecode=2c_.04 Length=22.39228 Units=m
New Line.LINE177_Cmpd_13 Bus1=177_1307 Bus2=177_1554 phases=3 Linecode=35_SAC_PC Length=14.06443 Units=m
New Line.LINE177_Cmpd_14 Bus1=177_349 Bus2=177_646 phases=3 Linecode=2c_.04 Length=7.572651 Units=m
New Line.LINE177_Cmpd_15 Bus1=177_244 Bus2=177_270 phases=3 Linecode=4c_.25 Length=32.7199 Units=m
New Line.LINE177_Cmpd_16 Bus1=177_749 Bus2=177_1206 phases=3 Linecode=2c_.04 Length=10.820667 Units=m
New Line.LINE177_Cmpd_17 Bus1=177_703 Bus2=177_854 phases=3 Linecode=2c_.04 Length=11.72903 Units=m
New Line.LINE177_Cmpd_18 Bus1=177_1525 Bus2=177_1736 phases=3 Linecode=2c_.04 Length=21.41602 Units=m
New Line.LINE177_Cmpd_19 Bus1=177_1120 Bus2=177_1710 phases=3 Linecode=2c_.04 Length=17.749585 Units=m
New Line.LINE177_Cmpd_20 Bus1=177_1435 Bus2=177_1751 phases=3 Linecode=2c_.04 Length=21.63875 Units=m
New Line.LINE177_Cmpd_21 Bus1=177_1923 Bus2=177_2430 phases=3 Linecode=35_SAC_PC Length=18.332372 Units=m
New Line.LINE177_Cmpd_22 Bus1=177_1307 Bus2=177_1729 phases=3 Linecode=3c_300_SAC Length=42.283559 Units=m
New Line.LINE177_Cmpd_23 Bus1=177_390 Bus2=177_699 phases=3 Linecode=2c_.04 Length=9.589128 Units=m
New Line.LINE177_Cmpd_24 Bus1=177_277 Bus2=177_465 phases=3 Linecode=2c_.04 Length=18.561827 Units=m
New Line.LINE177_Cmpd_25 Bus1=177_266 Bus2=177_680 phases=3 Linecode=2c_.04 Length=16.216823 Units=m
New Line.LINE177_Cmpd_26 Bus1=177_504 Bus2=177_703 phases=3 Linecode=4c_.25 Length=30.4077 Units=m
New Line.LINE177_Cmpd_27 Bus1=177_471 Bus2=177_732 phases=3 Linecode=2c_.04 Length=13.272528 Units=m
New Line.LINE177_Cmpd_28 Bus1=177_814 Bus2=177_1080 phases=3 Linecode=2c_.04 Length=2.59796 Units=m
New Line.LINE177_Cmpd_29 Bus1=177_901 Bus2=177_1088 phases=3 Linecode=2c_.04 Length=8.242282 Units=m
New Line.LINE177_Cmpd_30 Bus1=177_1581 Bus2=177_1803 phases=3 Linecode=2c_.04 Length=30.872438 Units=m
New Line.LINE177_Cmpd_31 Bus1=177_1729 Bus2=177_1783 phases=3 Linecode=3c_240_XC Length=7.21199 Units=m
New Line.LINE177_Cmpd_32 Bus1=177_266 Bus2=177_349 phases=3 Linecode=2c_.04 Length=2.317077 Units=m
New Line.LINE177_Cmpd_33 Bus1=177_576 Bus2=177_610 phases=3 Linecode=4c_.12 Length=16.8942 Units=m
New Line.LINE177_Cmpd_34 Bus1=177_711 Bus2=177_1197 phases=3 Linecode=35_SAC_XC Length=14.993958 Units=m
New Line.LINE177_Cmpd_35 Bus1=177_1710 Bus2=177_1784 phases=3 Linecode=2c_.04 Length=15.84442 Units=m
New Line.LINE177_Cmpd_36 Bus1=177_1260 Bus2=177_1619 phases=3 Linecode=2c_.04 Length=9.423369 Units=m
New Line.LINE177_Cmpd_37 Bus1=177_1080 Bus2=177_1654 phases=3 Linecode=2c_.04 Length=19.379128 Units=m
New Line.LINE177_Cmpd_38 Bus1=177_1007 Bus2=177_1445 phases=3 Linecode=2c_.04 Length=10.37273 Units=m
New Line.LINE177_Cmpd_39 Bus1=177_485 Bus2=177_684 phases=3 Linecode=2c_.04 Length=9.680182 Units=m
New Line.LINE177_Cmpd_40 Bus1=177_270 Bus2=177_385 phases=3 Linecode=4c_.25 Length=25.613005 Units=m
New Line.LINE177_Cmpd_41 Bus1=177_1076 Bus2=177_1740 phases=3 Linecode=2c_.04 Length=20.647359 Units=m
New Line.LINE177_Cmpd_42 Bus1=177_456 Bus2=177_504 phases=3 Linecode=4c_25 Length=26.048 Units=m
New Line.LINE177_Cmpd_43 Bus1=177_1807 Bus2=177_1923 phases=3 Linecode=3c_95_SAC_XC Length=44.505932 Units=m
New Line.LINE177_Cmpd_44 Bus1=177_789 Bus2=177_1076 phases=3 Linecode=2c_.04 Length=9.60607 Units=m
New Line.LINE177_Cmpd_45 Bus1=177_1307 Bus2=177_1553 phases=3 Linecode=35_SAC_PC Length=12.96614 Units=m
New Line.LINE177_Cmpd_46 Bus1=177_1307 Bus2=177_1717 phases=3 Linecode=35_SAC_PC Length=18.22176 Units=m
New Line.LINE177_Cmpd_47 Bus1=177_2190 Bus2=177_2246 phases=3 Linecode=35_SAC_PC Length=25.97547 Units=m
New Line.LINE177_Cmpd_48 Bus1=177_831 Bus2=177_1307 phases=3 Linecode=3c_300_SAC Length=16.55985 Units=m
New Line.LINE177_Cmpd_49 Bus1=177_773 Bus2=177_1049 phases=3 Linecode=2c_.04 Length=23.768618 Units=m
New Line.LINE177_Cmpd_50 Bus1=177_1307 Bus2=177_1664 phases=3 Linecode=35_SAC_PC Length=16.65351 Units=m
New Line.LINE177_Cmpd_51 Bus1=177_1065 Bus2=177_1409 phases=3 Linecode=2c_.04 Length=16.54123 Units=m
New Line.LINE177_Cmpd_52 Bus1=177_385 Bus2=177_576 phases=3 Linecode=4c_.12 Length=11.73658 Units=m
New Line.LINE177_Cmpd_53 Bus1=177_407 Bus2=177_679 phases=3 Linecode=2c_.04 Length=13.898576 Units=m
New Line.LINE177_Cmpd_54 Bus1=177_1789 Bus2=177_1859 phases=3 Linecode=3c_95_SAC_XC Length=12.74489 Units=m
New Line.LINE177_Cmpd_55 Bus1=177_811 Bus2=177_1009 phases=3 Linecode=2c_.04 Length=7.47223 Units=m
New Line.LINE177_Cmpd_56 Bus1=177_658 Bus2=177_726 phases=3 Linecode=2c_.04 Length=16.56008 Units=m
New Line.LINE177_Cmpd_57 Bus1=177_786 Bus2=177_861 phases=3 Linecode=4c_.04 Length=7.92825 Units=m
New Line.LINE177_Cmpd_58 Bus1=177_576 Bus2=177_724 phases=3 Linecode=2c_.04 Length=14.580207 Units=m
New Line.LINE177_Cmpd_59 Bus1=177_1923 Bus2=177_2301 phases=3 Linecode=35_SAC_PC Length=15.000475 Units=m
New Line.LINE177_Cmpd_60 Bus1=177_854 Bus2=177_1167 phases=3 Linecode=2c_.04 Length=15.11673 Units=m
New Line.LINE177_Cmpd_61 Bus1=177_1049 Bus2=177_1260 phases=3 Linecode=2c_.04 Length=2.832003 Units=m
New Line.LINE177_Cmpd_62 Bus1=177_656 Bus2=177_708 phases=3 Linecode=2c_.04 Length=8.24592 Units=m
New Line.LINE177_Cmpd_63 Bus1=177_1006 Bus2=177_1280 phases=3 Linecode=2c_.04 Length=13.52229 Units=m
New Line.LINE177_Cmpd_64 Bus1=177_1137 Bus2=177_1355 phases=3 Linecode=2c_.04 Length=2.13545 Units=m
New Line.LINE177_Cmpd_65 Bus1=177_729 Bus2=177_1125 phases=3 Linecode=2c_.04 Length=17.34189 Units=m
New Line.LINE177_Cmpd_66 Bus1=177_911 Bus2=177_1033 phases=3 Linecode=4c_.04 Length=25.6434 Units=m
New Line.LINE177_Cmpd_67 Bus1=177_244 Bus2=177_293 phases=3 Linecode=2c_.04 Length=14.129096 Units=m
New Line.LINE177_Cmpd_68 Bus1=177_911 Bus2=177_1065 phases=3 Linecode=4c_.06 Length=35.2508 Units=m
New Line.LINE177_Cmpd_69 Bus1=177_1298 Bus2=177_1522 phases=3 Linecode=2c_.04 Length=10.019005 Units=m
New Line.LINE177_Cmpd_70 Bus1=177_440 Bus2=177_601 phases=3 Linecode=2c_.04 Length=11.987708 Units=m
New Line.LINE177_Cmpd_71 Bus1=177_814 Bus2=177_1120 phases=3 Linecode=2c_.04 Length=12.598754 Units=m
New Line.LINE177_Cmpd_72 Bus1=177_711 Bus2=177_1085 phases=3 Linecode=35_SAC_XC Length=25.60652 Units=m
New Line.LINE177_Cmpd_73 Bus1=177_1009 Bus2=177_1669 phases=3 Linecode=2c_.04 Length=12.13176 Units=m
New Line.LINE177_Cmpd_74 Bus1=177_703 Bus2=177_735 phases=3 Linecode=4c_.25 Length=21.5146 Units=m
New Line.LINE177_Cmpd_75 Bus1=177_1033 Bus2=177_1276 phases=3 Linecode=2c_.04 Length=2.07147 Units=m
New Line.LINE177_Cmpd_76 Bus1=177_440 Bus2=177_600 phases=3 Linecode=2c_.04 Length=8.008614 Units=m
New Line.LINE177_Cmpd_77 Bus1=177_729 Bus2=177_778 phases=3 Linecode=4c_.12 Length=18.3432 Units=m
New Line.LINE177_Cmpd_78 Bus1=177_1859 Bus2=177_1977 phases=3 Linecode=35_SAC_PSC Length=11.696283 Units=m
New Line.LINE177_Cmpd_79 Bus1=177_1261 Bus2=177_1581 phases=3 Linecode=2c_.04 Length=9.363263 Units=m
New Line.LINE177_Cmpd_80 Bus1=177_1923 Bus2=177_2190 phases=3 Linecode=3c_95_SAC_XC Length=15.355713 Units=m
New Line.LINE177_Cmpd_81 Bus1=177_293 Bus2=177_390 phases=3 Linecode=2c_.04 Length=2.235158 Units=m
New Line.LINE177_Cmpd_82 Bus1=177_177 Bus2=177_217 phases=3 Linecode=2c_.04 Length=10.074 Units=m
New Line.LINE177_Cmpd_83 Bus1=177_1049 Bus2=177_1261 phases=3 Linecode=2c_.04 Length=3.147886 Units=m
New Line.LINE177_Cmpd_84 Bus1=177_861 Bus2=177_1006 phases=3 Linecode=2c_.04 Length=1.64222 Units=m
New Line.LINE177_Cmpd_85 Bus1=177_361 Bus2=177_546 phases=3 Linecode=2c_.04 Length=9.402064 Units=m
New Line.LINE177_Cmpd_86 Bus1=177_1246 Bus2=177_1525 phases=3 Linecode=2c_.04 Length=7.73502 Units=m
New Line.LINE177_Cmpd_87 Bus1=177_807 Bus2=177_1108 phases=3 Linecode=2c_.04 Length=17.24963 Units=m
New Line.LINE177_Cmpd_88 Bus1=177_1033 Bus2=177_1246 phases=3 Linecode=2c_.04 Length=2.19812 Units=m
New Line.LINE177_Cmpd_89 Bus1=177_778 Bus2=177_901 phases=3 Linecode=2c_.04 Length=8.40309 Units=m
New Line.LINE177_Cmpd_90 Bus1=177_2013 Bus2=177_2163 phases=3 Linecode=35_SAC_PSC Length=13.625238 Units=m
New Line.LINE177_Cmpd_91 Bus1=177_1807 Bus2=177_1827 phases=3 Linecode=3c_95_SAC_XC Length=2.693853 Units=m
New Line.LINE177_Cmpd_92 Bus1=177_1355 Bus2=177_1603 phases=3 Linecode=2c_.04 Length=14.57775 Units=m
New Line.LINE177_Cmpd_93 Bus1=177_215 Bus2=177_226 phases=3 Linecode=4c_.25 Length=13.5992 Units=m
New Line.LINE177_Cmpd_94 Bus1=177_861 Bus2=177_1007 phases=3 Linecode=2c_.04 Length=11.48632 Units=m
New Line.LINE177_Cmpd_95 Bus1=177_1276 Bus2=177_1526 phases=3 Linecode=2c_.04 Length=8.8541 Units=m
New Line.LINE177_Cmpd_96 Bus1=177_293 Bus2=177_361 phases=3 Linecode=2c_.04 Length=2.351682 Units=m
New Line.LINE177_Cmpd_97 Bus1=177_2190 Bus2=177_2253 phases=3 Linecode=35_SAC_PC Length=25.9419 Units=m
New Line.LINE177_Cmpd_98 Bus1=177_610 Bus2=177_658 phases=3 Linecode=4c_.12 Length=14.9362 Units=m
New Line.LINE177_Cmpd_99 Bus1=177_1137 Bus2=177_1298 phases=3 Linecode=2c_.04 Length=11.45158 Units=m
New Line.LINE177_Cmpd_100 Bus1=177_658 Bus2=177_711 phases=3 Linecode=4c_.12 Length=14.4334 Units=m
New Line.LINE177_Cmpd_101 Bus1=177_177 Bus2=177_215 phases=3 Linecode=4c_.25 Length=33.9097 Units=m
New Line.LINE177_Cmpd_102 Bus1=177_1783 Bus2=177_1789 phases=3 Linecode=3c_240_SAC_XC Length=9.0491 Units=m
New Line.LINE177_Cmpd_103 Bus1=177_1859 Bus2=177_1884 phases=3 Linecode=3c_95_SAC_XC Length=3.33605 Units=m
New Line.LINE177_Cmpd_104 Bus1=177_215 Bus2=177_266 phases=3 Linecode=2c_.04 Length=13.734519 Units=m
New Line.LINE177_Cmpd_105 Bus1=177_750 Bus2=177_786 phases=3 Linecode=4c_.25 Length=22.6451 Units=m
New Line.LINE177_Cmpd_106 Bus1=177_394 Bus2=177_428 phases=3 Linecode=4c_25 Length=14.8027 Units=m
New Line.LINE177_Cmpd_107 Bus1=177_160 Bus2=177_177 phases=3 Linecode=4c_.25 Length=29.4185 Units=m
New Line.LINE177_Cmpd_108 Bus1=177_1789 Bus2=177_1807 phases=3 Linecode=3c_240_SAC_XC Length=18.13877 Units=m
New Line.LINE177_Cmpd_109 Bus1=177_441 Bus2=177_485 phases=3 Linecode=2c_.04 Length=15.1648 Units=m
New Line.LINE177_Cmpd_110 Bus1=177_1884 Bus2=177_2029 phases=3 Linecode=35_SAC_PC Length=15.318772 Units=m
New Line.LINE177_Cmpd_111 Bus1=177_656 Bus2=177_693 phases=3 Linecode=2c_.04 Length=7.1453 Units=m
New Line.LINE177_Cmpd_112 Bus1=177_226 Bus2=177_244 phases=3 Linecode=4c_.25 Length=22.785 Units=m
New Line.LINE177_Cmpd_113 Bus1=177_1206 Bus2=177_1267 phases=3 Linecode=2c_.04 Length=7.0057 Units=m
New Line.LINE177_Cmpd_114 Bus1=177_1740 Bus2=177_1754 phases=3 Linecode=2c_.04 Length=4.01146 Units=m
New Line.LINE177_Cmpd_115 Bus1=177_1168 Bus2=177_1236 phases=3 Linecode=2c_.04 Length=5.8172 Units=m
New Line.LINE177_Cmpd_116 Bus1=177_610 Bus2=177_656 phases=3 Linecode=2c_.04 Length=6.7607 Units=m
New Line.LINE177_Cmpd_117 Bus1=177_858 Bus2=177_911 phases=3 Linecode=4c_.06 Length=18.0308 Units=m
New Line.LINE177_Cmpd_118 Bus1=177_1669 Bus2=177_1697 phases=3 Linecode=2c_.04 Length=8.3527 Units=m
New Line.LINE177_Cmpd_119 Bus1=177_773 Bus2=177_814 phases=3 Linecode=2c_.04 Length=9.4236 Units=m
