Set DefaultBaseFrequency=50  ! for European system
New circuit.LVTest
Edit Vsource.Source BasekV=11 pu=1.05  ISC3=3000  ISC1=5
Redirect LineCode.txt
Redirect Lines.txt
Redirect Transformers.txt
Redirect Loads.txt
Redirect Monitors.txt
Redirect Generators.txt
Set voltagebases=[11  .416]
Calcvoltagebases
LatLongCoords XY_Position.csv
