New Line.LINE118 Bus1=110 Bus2=119 phases=3 Linecode=.04_PSC Length=3.901 Units=m
New Line.LINE202 Bus1=191 Bus2=203 phases=3 Linecode=.04_PSC Length=3.5708 Units=m
New Line.LINE213 Bus1=199 Bus2=214 phases=3 Linecode=.04_PSC Length=4.6735 Units=m
New Line.LINE229 Bus1=216 Bus2=230 phases=3 Linecode=.04_PSC Length=4.1692 Units=m
New Line.LINE269 Bus1=254 Bus2=270 phases=3 Linecode=.04_PSC Length=3.7482 Units=m
New Line.LINE377 Bus1=364 Bus2=378 phases=3 Linecode=.0225_PSC Length=5.5781 Units=m
New Line.LINE411 Bus1=397 Bus2=412 phases=3 Linecode=4c_120_SAC Length=11.8223 Units=m
New Line.LINE442 Bus1=425 Bus2=443 phases=3 Linecode=4c_120_SAC Length=10.6987 Units=m
New Line.LINE467 Bus1=447 Bus2=468 phases=3 Linecode=.0225_PSC Length=8.8381 Units=m
New Line.LINE490 Bus1=468 Bus2=491 phases=3 Linecode=.0225_PSC Length=4.1514 Units=m
New Line.LINE525 Bus1=501 Bus2=526 phases=3 Linecode=.04_PSC Length=4.1328 Units=m
New Line.LINE560 Bus1=535 Bus2=561 phases=3 Linecode=4c_120_SAC Length=2.0746 Units=m
New Line.LINE590 Bus1=562 Bus2=591 phases=3 Linecode=.0225_PSC Length=4.5543 Units=m
New Line.LINE681 Bus1=656 Bus2=682 phases=3 Linecode=.0225_PSC Length=4.3968 Units=m
New Line.LINE798 Bus1=775 Bus2=799 phases=3 Linecode=.04_PSC Length=4.8105 Units=m
New Line.LINE820 Bus1=795 Bus2=821 phases=3 Linecode=.0225_PSC Length=3.4829 Units=m
New Line.LINE826 Bus1=802 Bus2=827 phases=3 Linecode=4c_185_SAC Length=12.7797 Units=m
New Line.LINE895 Bus1=870 Bus2=896 phases=3 Linecode=.04_PSC Length=5.4457 Units=m
New Line.LINE953 Bus1=931 Bus2=954 phases=3 Linecode=.0225_PSC Length=2.989 Units=m
New Line.LINE959 Bus1=936 Bus2=960 phases=3 Linecode=.04_PSC Length=5.5925 Units=m
New Line.LINE965 Bus1=941 Bus2=966 phases=3 Linecode=.04_PSC Length=4.6884 Units=m
New Line.LINE981 Bus1=957 Bus2=982 phases=3 Linecode=.04_PSC Length=4.2816 Units=m
New Line.LINE1088 Bus1=1068 Bus2=1089 phases=3 Linecode=.04_PSC Length=3.6783 Units=m
New Line.LINE1098 Bus1=1077 Bus2=1099 phases=3 Linecode=.04_PSC Length=4.0336 Units=m
New Line.LINE1104 Bus1=1083 Bus2=1105 phases=3 Linecode=.04_PSC Length=4.4765 Units=m
New Line.LINE1132 Bus1=1114 Bus2=1133 phases=3 Linecode=.04_PSC Length=3.7198 Units=m
New Line.LINE1173 Bus1=1156 Bus2=1174 phases=3 Linecode=.04_PSC Length=5.4228 Units=m
New Line.LINE1186 Bus1=1168 Bus2=1187 phases=3 Linecode=.04_PSC Length=3.7668 Units=m
New Line.LINE1256 Bus1=1242 Bus2=1257 phases=3 Linecode=.04_PSC Length=4.7418 Units=m
New Line.LINE1306 Bus1=1293 Bus2=1307 phases=3 Linecode=.04_PSC Length=4.7823 Units=m
New Line.LINE1310 Bus1=1296 Bus2=1311 phases=3 Linecode=.04_PSC Length=3.8439 Units=m
New Line.LINE1313 Bus1=1298 Bus2=1314 phases=3 Linecode=.04_PSC Length=4.5545 Units=m
New Line.LINE1328 Bus1=1318 Bus2=1329 phases=3 Linecode=.04_PSC Length=5.2267 Units=m
New Line.LINECmpd_0 Bus1=254 Bus2=457 phases=3 Linecode=.0225_PSC Length=13.72072 Units=m
New Line.LINECmpd_1 Bus1=219 Bus2=656 phases=3 Linecode=.0225_PSC Length=11.5527 Units=m
New Line.LINECmpd_2 Bus1=1 Bus2=75 phases=3 Linecode=4c_300_SAC Length=150.015054 Units=m
New Line.LINECmpd_3 Bus1=775 Bus2=1058 phases=3 Linecode=.0225_PSC Length=10.518906 Units=m
New Line.LINECmpd_4 Bus1=1318 Bus2=1408 phases=3 Linecode=.04_PSC Length=13.939627 Units=m
New Line.LINECmpd_5 Bus1=193 Bus2=501 phases=3 Linecode=.04_PSC Length=10.435966 Units=m
New Line.LINECmpd_6 Bus1=493 Bus2=1077 phases=3 Linecode=.04_PSC Length=17.147649 Units=m
New Line.LINECmpd_7 Bus1=75 Bus2=397 phases=3 Linecode=4c_120_SAC Length=28.497156 Units=m
New Line.LINECmpd_8 Bus1=802 Bus2=1083 phases=3 Linecode=.0225_PSC Length=9.751221 Units=m
New Line.LINECmpd_9 Bus1=870 Bus2=1154 phases=3 Linecode=.04_PSC Length=12.494008 Units=m
New Line.LINECmpd_10 Bus1=1296 Bus2=1394 phases=3 Linecode=.04_PSC Length=12.474535 Units=m
New Line.LINECmpd_11 Bus1=412 Bus2=941 phases=3 Linecode=.04_PSC Length=22.566065 Units=m
New Line.LINECmpd_12 Bus1=493 Bus2=1156 phases=3 Linecode=.04_PSC Length=26.583901 Units=m
New Line.LINECmpd_13 Bus1=1242 Bus2=1401 phases=3 Linecode=.04_PSC Length=13.95499 Units=m
New Line.LINECmpd_14 Bus1=561 Bus2=1293 phases=3 Linecode=.04_PSC Length=17.62999 Units=m
New Line.LINECmpd_15 Bus1=425 Bus2=957 phases=3 Linecode=.04_PSC Length=10.699932 Units=m
New Line.LINECmpd_16 Bus1=931 Bus2=1229 phases=3 Linecode=.0225_PSC Length=13.03891 Units=m
New Line.LINECmpd_17 Bus1=412 Bus2=870 phases=3 Linecode=.04_PSC Length=16.53393 Units=m
New Line.LINECmpd_18 Bus1=219 Bus2=802 phases=3 Linecode=4c_185_SAC Length=29.07115 Units=m
New Line.LINECmpd_19 Bus1=443 Bus2=1318 phases=3 Linecode=.04_PSC Length=23.844045 Units=m
New Line.LINECmpd_20 Bus1=1114 Bus2=1320 phases=3 Linecode=.04_PSC Length=14.84834 Units=m
New Line.LINECmpd_21 Bus1=425 Bus2=1068 phases=3 Linecode=.04_PSC Length=11.300024 Units=m
New Line.LINECmpd_22 Bus1=93 Bus2=216 phases=3 Linecode=.0225_PSC Length=24.02556 Units=m
New Line.LINECmpd_23 Bus1=827 Bus2=1296 phases=3 Linecode=.04_PSC Length=18.324491 Units=m
New Line.LINECmpd_24 Bus1=1068 Bus2=1326 phases=3 Linecode=.04_PSC Length=15.09543 Units=m
New Line.LINECmpd_25 Bus1=957 Bus2=1300 phases=3 Linecode=.04_PSC Length=16.79491 Units=m
New Line.LINECmpd_26 Bus1=80 Bus2=199 phases=3 Linecode=.0225_PSC Length=22.278452 Units=m
New Line.LINECmpd_27 Bus1=219 Bus2=931 phases=3 Linecode=.0225_PSC Length=24.895724 Units=m
New Line.LINECmpd_28 Bus1=364 Bus2=710 phases=3 Linecode=.0225_PSC Length=13.661973 Units=m
New Line.LINECmpd_29 Bus1=443 Bus2=936 phases=3 Linecode=.0225_PSC Length=15.786901 Units=m
New Line.LINECmpd_30 Bus1=941 Bus2=1267 phases=3 Linecode=.04_PSC Length=11.320335 Units=m
New Line.LINECmpd_31 Bus1=1168 Bus2=1357 phases=3 Linecode=.04_PSC Length=17.04444 Units=m
New Line.LINECmpd_32 Bus1=656 Bus2=1000 phases=3 Linecode=.0225_PSC Length=12.520605 Units=m
New Line.LINECmpd_33 Bus1=827 Bus2=1242 phases=3 Linecode=.04_PSC Length=18.113488 Units=m
New Line.LINECmpd_34 Bus1=151 Bus2=254 phases=3 Linecode=.0225_PSC Length=8.81054 Units=m
New Line.LINECmpd_35 Bus1=1293 Bus2=1407 phases=3 Linecode=.04_PSC Length=14.28132 Units=m
New Line.LINECmpd_36 Bus1=535 Bus2=1114 phases=3 Linecode=.04_PSC Length=10.594048 Units=m
New Line.LINECmpd_37 Bus1=1083 Bus2=1315 phases=3 Linecode=.0225_PSC Length=12.711038 Units=m
New Line.LINECmpd_38 Bus1=199 Bus2=450 phases=3 Linecode=.0225_PSC Length=12.061278 Units=m
New Line.LINECmpd_39 Bus1=191 Bus2=401 phases=3 Linecode=.0225_PSC Length=12.707701 Units=m
New Line.LINECmpd_40 Bus1=115 Bus2=327 phases=3 Linecode=3c_185_SAC_ASN Length=12.08811 Units=m
New Line.LINECmpd_41 Bus1=802 Bus2=1298 phases=3 Linecode=.04_PSC Length=24.01968 Units=m
New Line.LINECmpd_42 Bus1=80 Bus2=93 phases=3 Linecode=4c_300_SAC Length=45.6678 Units=m
New Line.LINECmpd_43 Bus1=193 Bus2=364 phases=3 Linecode=.0225_PSC Length=17.51951 Units=m
New Line.LINECmpd_44 Bus1=1077 Bus2=1308 phases=3 Linecode=.04_PSC Length=12.264343 Units=m
New Line.LINECmpd_45 Bus1=501 Bus2=884 phases=3 Linecode=.04_PSC Length=12.79503 Units=m
New Line.LINECmpd_46 Bus1=795 Bus2=1097 phases=3 Linecode=.0225_PSC Length=10.487658 Units=m
New Line.LINECmpd_47 Bus1=468 Bus2=819 phases=3 Linecode=.0225_PSC Length=10.876876 Units=m
New Line.LINECmpd_48 Bus1=543 Bus2=775 phases=3 Linecode=.0225_PSC Length=8.01745 Units=m
New Line.LINECmpd_49 Bus1=93 Bus2=191 phases=3 Linecode=.0225_PSC Length=11.911701 Units=m
New Line.LINECmpd_50 Bus1=216 Bus2=415 phases=3 Linecode=.0225_PSC Length=12.310759 Units=m
New Line.LINECmpd_51 Bus1=1156 Bus2=1346 phases=3 Linecode=.04_PSC Length=12.67079 Units=m
New Line.LINECmpd_52 Bus1=535 Bus2=1168 phases=3 Linecode=.04_PSC Length=10.269334 Units=m
New Line.LINECmpd_53 Bus1=447 Bus2=795 phases=3 Linecode=.0225_PSC Length=19.96114 Units=m
New Line.LINECmpd_54 Bus1=327 Bus2=425 phases=3 Linecode=4c_120_SAC Length=19.63418 Units=m
New Line.LINECmpd_55 Bus1=936 Bus2=1327 phases=3 Linecode=.0225_PSC Length=15.67984 Units=m
New Line.LINECmpd_56 Bus1=1298 Bus2=1391 phases=3 Linecode=.04_PSC Length=12.962932 Units=m
New Line.LINECmpd_57 Bus1=80 Bus2=110 phases=3 Linecode=.0225_PSC Length=8.02622 Units=m
New Line.LINECmpd_58 Bus1=562 Bus2=918 phases=3 Linecode=.0225_PSC Length=11.731908 Units=m
New Line.LINECmpd_59 Bus1=110 Bus2=315 phases=3 Linecode=.0225_PSC Length=12.688344 Units=m
New Line.LINECmpd_60 Bus1=93 Bus2=115 phases=3 Linecode=4c_300_SAC Length=3.40424 Units=m
New Line.LINECmpd_61 Bus1=397 Bus2=562 phases=3 Linecode=.0225_PSC Length=8.07748 Units=m
New Line.LINECmpd_62 Bus1=151 Bus2=170 phases=3 Linecode=4c_300_SAC Length=27.3058 Units=m
New Line.LINECmpd_63 Bus1=115 Bus2=151 phases=3 Linecode=4c_300_SAC Length=23.53183 Units=m
New Line.LINECmpd_64 Bus1=447 Bus2=493 phases=3 Linecode=4c_120_SAC Length=24.6193 Units=m
New Line.LINECmpd_65 Bus1=443 Bus2=535 phases=3 Linecode=4c_120_SAC Length=28.0998 Units=m
New Line.LINECmpd_66 Bus1=412 Bus2=447 phases=3 Linecode=4c_120_SAC Length=21.9159 Units=m
New Line.LINECmpd_67 Bus1=493 Bus2=543 phases=3 Linecode=4c_120_SAC Length=11.7384 Units=m
New Line.LINECmpd_68 Bus1=170 Bus2=193 phases=3 Linecode=4c_185_SAC Length=3.4465 Units=m
New Line.LINECmpd_69 Bus1=193 Bus2=219 phases=3 Linecode=4c_185_SAC Length=25.0501 Units=m
New Line.LINECmpd_70 Bus1=75 Bus2=80 phases=3 Linecode=4c_300_SAC Length=19.2816 Units=m
