New Line.LINE181_118 Bus1=181_110 Bus2=181_119 phases=3 Linecode=.04_PSC Length=3.901 Units=m
New Line.LINE181_202 Bus1=181_191 Bus2=181_203 phases=3 Linecode=.04_PSC Length=3.5708 Units=m
New Line.LINE181_213 Bus1=181_199 Bus2=181_214 phases=3 Linecode=.04_PSC Length=4.6735 Units=m
New Line.LINE181_229 Bus1=181_216 Bus2=181_230 phases=3 Linecode=.04_PSC Length=4.1692 Units=m
New Line.LINE181_269 Bus1=181_254 Bus2=181_270 phases=3 Linecode=.04_PSC Length=3.7482 Units=m
New Line.LINE181_377 Bus1=181_364 Bus2=181_378 phases=3 Linecode=.0225_PSC Length=5.5781 Units=m
New Line.LINE181_411 Bus1=181_397 Bus2=181_412 phases=3 Linecode=4c_120_SAC Length=11.8223 Units=m
New Line.LINE181_442 Bus1=181_425 Bus2=181_443 phases=3 Linecode=4c_120_SAC Length=10.6987 Units=m
New Line.LINE181_467 Bus1=181_447 Bus2=181_468 phases=3 Linecode=.0225_PSC Length=8.8381 Units=m
New Line.LINE181_490 Bus1=181_468 Bus2=181_491 phases=3 Linecode=.0225_PSC Length=4.1514 Units=m
New Line.LINE181_525 Bus1=181_501 Bus2=181_526 phases=3 Linecode=.04_PSC Length=4.1328 Units=m
New Line.LINE181_560 Bus1=181_535 Bus2=181_561 phases=3 Linecode=4c_120_SAC Length=2.0746 Units=m
New Line.LINE181_590 Bus1=181_562 Bus2=181_591 phases=3 Linecode=.0225_PSC Length=4.5543 Units=m
New Line.LINE181_681 Bus1=181_656 Bus2=181_682 phases=3 Linecode=.0225_PSC Length=4.3968 Units=m
New Line.LINE181_798 Bus1=181_775 Bus2=181_799 phases=3 Linecode=.04_PSC Length=4.8105 Units=m
New Line.LINE181_820 Bus1=181_795 Bus2=181_821 phases=3 Linecode=.0225_PSC Length=3.4829 Units=m
New Line.LINE181_826 Bus1=181_802 Bus2=181_827 phases=3 Linecode=4c_185_SAC Length=12.7797 Units=m
New Line.LINE181_895 Bus1=181_870 Bus2=181_896 phases=3 Linecode=.04_PSC Length=5.4457 Units=m
New Line.LINE181_953 Bus1=181_931 Bus2=181_954 phases=3 Linecode=.0225_PSC Length=2.989 Units=m
New Line.LINE181_959 Bus1=181_936 Bus2=181_960 phases=3 Linecode=.04_PSC Length=5.5925 Units=m
New Line.LINE181_965 Bus1=181_941 Bus2=181_966 phases=3 Linecode=.04_PSC Length=4.6884 Units=m
New Line.LINE181_981 Bus1=181_957 Bus2=181_982 phases=3 Linecode=.04_PSC Length=4.2816 Units=m
New Line.LINE181_1088 Bus1=181_1068 Bus2=181_1089 phases=3 Linecode=.04_PSC Length=3.6783 Units=m
New Line.LINE181_1098 Bus1=181_1077 Bus2=181_1099 phases=3 Linecode=.04_PSC Length=4.0336 Units=m
New Line.LINE181_1104 Bus1=181_1083 Bus2=181_1105 phases=3 Linecode=.04_PSC Length=4.4765 Units=m
New Line.LINE181_1132 Bus1=181_1114 Bus2=181_1133 phases=3 Linecode=.04_PSC Length=3.7198 Units=m
New Line.LINE181_1173 Bus1=181_1156 Bus2=181_1174 phases=3 Linecode=.04_PSC Length=5.4228 Units=m
New Line.LINE181_1186 Bus1=181_1168 Bus2=181_1187 phases=3 Linecode=.04_PSC Length=3.7668 Units=m
New Line.LINE181_1256 Bus1=181_1242 Bus2=181_1257 phases=3 Linecode=.04_PSC Length=4.7418 Units=m
New Line.LINE181_1306 Bus1=181_1293 Bus2=181_1307 phases=3 Linecode=.04_PSC Length=4.7823 Units=m
New Line.LINE181_1310 Bus1=181_1296 Bus2=181_1311 phases=3 Linecode=.04_PSC Length=3.8439 Units=m
New Line.LINE181_1313 Bus1=181_1298 Bus2=181_1314 phases=3 Linecode=.04_PSC Length=4.5545 Units=m
New Line.LINE181_1328 Bus1=181_1318 Bus2=181_1329 phases=3 Linecode=.04_PSC Length=5.2267 Units=m
New Line.LINE181_Cmpd_0 Bus1=181_254 Bus2=181_457 phases=3 Linecode=.0225_PSC Length=13.72072 Units=m
New Line.LINE181_Cmpd_1 Bus1=181_219 Bus2=181_656 phases=3 Linecode=.0225_PSC Length=11.5527 Units=m
New Line.LINE181_Cmpd_2 Bus1=181_1 Bus2=181_75 phases=3 Linecode=4c_300_SAC Length=150.015054 Units=m
New Line.LINE181_Cmpd_3 Bus1=181_775 Bus2=181_1058 phases=3 Linecode=.0225_PSC Length=10.518906 Units=m
New Line.LINE181_Cmpd_4 Bus1=181_1318 Bus2=181_1408 phases=3 Linecode=.04_PSC Length=13.939627 Units=m
New Line.LINE181_Cmpd_5 Bus1=181_193 Bus2=181_501 phases=3 Linecode=.04_PSC Length=10.435966 Units=m
New Line.LINE181_Cmpd_6 Bus1=181_493 Bus2=181_1077 phases=3 Linecode=.04_PSC Length=17.147649 Units=m
New Line.LINE181_Cmpd_7 Bus1=181_75 Bus2=181_397 phases=3 Linecode=4c_120_SAC Length=28.497156 Units=m
New Line.LINE181_Cmpd_8 Bus1=181_802 Bus2=181_1083 phases=3 Linecode=.0225_PSC Length=9.751221 Units=m
New Line.LINE181_Cmpd_9 Bus1=181_870 Bus2=181_1154 phases=3 Linecode=.04_PSC Length=12.494008 Units=m
New Line.LINE181_Cmpd_10 Bus1=181_1296 Bus2=181_1394 phases=3 Linecode=.04_PSC Length=12.474535 Units=m
New Line.LINE181_Cmpd_11 Bus1=181_412 Bus2=181_941 phases=3 Linecode=.04_PSC Length=22.566065 Units=m
New Line.LINE181_Cmpd_12 Bus1=181_493 Bus2=181_1156 phases=3 Linecode=.04_PSC Length=26.583901 Units=m
New Line.LINE181_Cmpd_13 Bus1=181_1242 Bus2=181_1401 phases=3 Linecode=.04_PSC Length=13.95499 Units=m
New Line.LINE181_Cmpd_14 Bus1=181_561 Bus2=181_1293 phases=3 Linecode=.04_PSC Length=17.62999 Units=m
New Line.LINE181_Cmpd_15 Bus1=181_425 Bus2=181_957 phases=3 Linecode=.04_PSC Length=10.699932 Units=m
New Line.LINE181_Cmpd_16 Bus1=181_931 Bus2=181_1229 phases=3 Linecode=.0225_PSC Length=13.03891 Units=m
New Line.LINE181_Cmpd_17 Bus1=181_412 Bus2=181_870 phases=3 Linecode=.04_PSC Length=16.53393 Units=m
New Line.LINE181_Cmpd_18 Bus1=181_219 Bus2=181_802 phases=3 Linecode=4c_185_SAC Length=29.07115 Units=m
New Line.LINE181_Cmpd_19 Bus1=181_443 Bus2=181_1318 phases=3 Linecode=.04_PSC Length=23.844045 Units=m
New Line.LINE181_Cmpd_20 Bus1=181_1114 Bus2=181_1320 phases=3 Linecode=.04_PSC Length=14.84834 Units=m
New Line.LINE181_Cmpd_21 Bus1=181_425 Bus2=181_1068 phases=3 Linecode=.04_PSC Length=11.300024 Units=m
New Line.LINE181_Cmpd_22 Bus1=181_93 Bus2=181_216 phases=3 Linecode=.0225_PSC Length=24.02556 Units=m
New Line.LINE181_Cmpd_23 Bus1=181_827 Bus2=181_1296 phases=3 Linecode=.04_PSC Length=18.324491 Units=m
New Line.LINE181_Cmpd_24 Bus1=181_1068 Bus2=181_1326 phases=3 Linecode=.04_PSC Length=15.09543 Units=m
New Line.LINE181_Cmpd_25 Bus1=181_957 Bus2=181_1300 phases=3 Linecode=.04_PSC Length=16.79491 Units=m
New Line.LINE181_Cmpd_26 Bus1=181_80 Bus2=181_199 phases=3 Linecode=.0225_PSC Length=22.278452 Units=m
New Line.LINE181_Cmpd_27 Bus1=181_219 Bus2=181_931 phases=3 Linecode=.0225_PSC Length=24.895724 Units=m
New Line.LINE181_Cmpd_28 Bus1=181_364 Bus2=181_710 phases=3 Linecode=.0225_PSC Length=13.661973 Units=m
New Line.LINE181_Cmpd_29 Bus1=181_443 Bus2=181_936 phases=3 Linecode=.0225_PSC Length=15.786901 Units=m
New Line.LINE181_Cmpd_30 Bus1=181_941 Bus2=181_1267 phases=3 Linecode=.04_PSC Length=11.320335 Units=m
New Line.LINE181_Cmpd_31 Bus1=181_1168 Bus2=181_1357 phases=3 Linecode=.04_PSC Length=17.04444 Units=m
New Line.LINE181_Cmpd_32 Bus1=181_656 Bus2=181_1000 phases=3 Linecode=.0225_PSC Length=12.520605 Units=m
New Line.LINE181_Cmpd_33 Bus1=181_827 Bus2=181_1242 phases=3 Linecode=.04_PSC Length=18.113488 Units=m
New Line.LINE181_Cmpd_34 Bus1=181_151 Bus2=181_254 phases=3 Linecode=.0225_PSC Length=8.81054 Units=m
New Line.LINE181_Cmpd_35 Bus1=181_1293 Bus2=181_1407 phases=3 Linecode=.04_PSC Length=14.28132 Units=m
New Line.LINE181_Cmpd_36 Bus1=181_535 Bus2=181_1114 phases=3 Linecode=.04_PSC Length=10.594048 Units=m
New Line.LINE181_Cmpd_37 Bus1=181_1083 Bus2=181_1315 phases=3 Linecode=.0225_PSC Length=12.711038 Units=m
New Line.LINE181_Cmpd_38 Bus1=181_199 Bus2=181_450 phases=3 Linecode=.0225_PSC Length=12.061278 Units=m
New Line.LINE181_Cmpd_39 Bus1=181_191 Bus2=181_401 phases=3 Linecode=.0225_PSC Length=12.707701 Units=m
New Line.LINE181_Cmpd_40 Bus1=181_115 Bus2=181_327 phases=3 Linecode=3c_185_SAC_ASN Length=12.08811 Units=m
New Line.LINE181_Cmpd_41 Bus1=181_802 Bus2=181_1298 phases=3 Linecode=.04_PSC Length=24.01968 Units=m
New Line.LINE181_Cmpd_42 Bus1=181_80 Bus2=181_93 phases=3 Linecode=4c_300_SAC Length=45.6678 Units=m
New Line.LINE181_Cmpd_43 Bus1=181_193 Bus2=181_364 phases=3 Linecode=.0225_PSC Length=17.51951 Units=m
New Line.LINE181_Cmpd_44 Bus1=181_1077 Bus2=181_1308 phases=3 Linecode=.04_PSC Length=12.264343 Units=m
New Line.LINE181_Cmpd_45 Bus1=181_501 Bus2=181_884 phases=3 Linecode=.04_PSC Length=12.79503 Units=m
New Line.LINE181_Cmpd_46 Bus1=181_795 Bus2=181_1097 phases=3 Linecode=.0225_PSC Length=10.487658 Units=m
New Line.LINE181_Cmpd_47 Bus1=181_468 Bus2=181_819 phases=3 Linecode=.0225_PSC Length=10.876876 Units=m
New Line.LINE181_Cmpd_48 Bus1=181_543 Bus2=181_775 phases=3 Linecode=.0225_PSC Length=8.01745 Units=m
New Line.LINE181_Cmpd_49 Bus1=181_93 Bus2=181_191 phases=3 Linecode=.0225_PSC Length=11.911701 Units=m
New Line.LINE181_Cmpd_50 Bus1=181_216 Bus2=181_415 phases=3 Linecode=.0225_PSC Length=12.310759 Units=m
New Line.LINE181_Cmpd_51 Bus1=181_1156 Bus2=181_1346 phases=3 Linecode=.04_PSC Length=12.67079 Units=m
New Line.LINE181_Cmpd_52 Bus1=181_535 Bus2=181_1168 phases=3 Linecode=.04_PSC Length=10.269334 Units=m
New Line.LINE181_Cmpd_53 Bus1=181_447 Bus2=181_795 phases=3 Linecode=.0225_PSC Length=19.96114 Units=m
New Line.LINE181_Cmpd_54 Bus1=181_327 Bus2=181_425 phases=3 Linecode=4c_120_SAC Length=19.63418 Units=m
New Line.LINE181_Cmpd_55 Bus1=181_936 Bus2=181_1327 phases=3 Linecode=.0225_PSC Length=15.67984 Units=m
New Line.LINE181_Cmpd_56 Bus1=181_1298 Bus2=181_1391 phases=3 Linecode=.04_PSC Length=12.962932 Units=m
New Line.LINE181_Cmpd_57 Bus1=181_80 Bus2=181_110 phases=3 Linecode=.0225_PSC Length=8.02622 Units=m
New Line.LINE181_Cmpd_58 Bus1=181_562 Bus2=181_918 phases=3 Linecode=.0225_PSC Length=11.731908 Units=m
New Line.LINE181_Cmpd_59 Bus1=181_110 Bus2=181_315 phases=3 Linecode=.0225_PSC Length=12.688344 Units=m
New Line.LINE181_Cmpd_60 Bus1=181_93 Bus2=181_115 phases=3 Linecode=4c_300_SAC Length=3.40424 Units=m
New Line.LINE181_Cmpd_61 Bus1=181_397 Bus2=181_562 phases=3 Linecode=.0225_PSC Length=8.07748 Units=m
New Line.LINE181_Cmpd_62 Bus1=181_151 Bus2=181_170 phases=3 Linecode=4c_300_SAC Length=27.3058 Units=m
New Line.LINE181_Cmpd_63 Bus1=181_115 Bus2=181_151 phases=3 Linecode=4c_300_SAC Length=23.53183 Units=m
New Line.LINE181_Cmpd_64 Bus1=181_447 Bus2=181_493 phases=3 Linecode=4c_120_SAC Length=24.6193 Units=m
New Line.LINE181_Cmpd_65 Bus1=181_443 Bus2=181_535 phases=3 Linecode=4c_120_SAC Length=28.0998 Units=m
New Line.LINE181_Cmpd_66 Bus1=181_412 Bus2=181_447 phases=3 Linecode=4c_120_SAC Length=21.9159 Units=m
New Line.LINE181_Cmpd_67 Bus1=181_493 Bus2=181_543 phases=3 Linecode=4c_120_SAC Length=11.7384 Units=m
New Line.LINE181_Cmpd_68 Bus1=181_170 Bus2=181_193 phases=3 Linecode=4c_185_SAC Length=3.4465 Units=m
New Line.LINE181_Cmpd_69 Bus1=181_193 Bus2=181_219 phases=3 Linecode=4c_185_SAC Length=25.0501 Units=m
New Line.LINE181_Cmpd_70 Bus1=181_75 Bus2=181_80 phases=3 Linecode=4c_300_SAC Length=19.2816 Units=m
