New Line.LINE181_118 Bus1=181_110 Bus2=181_119 phases=3 Linecode=.04_PSC Length=3.901 Units=m
New Line.LINE181_124 Bus1=181_115 Bus2=181_125 phases=3 Linecode=3c_185_SAC_ASN Length=1.3774 Units=m
New Line.LINE181_133 Bus1=181_125 Bus2=181_134 phases=3 Linecode=3c_185_SAC_ASN Length=0.13324 Units=m
New Line.LINE181_142 Bus1=181_134 Bus2=181_143 phases=3 Linecode=3c_185_SAC_ASN Length=0.10841 Units=m
New Line.LINE181_151 Bus1=181_143 Bus2=181_152 phases=3 Linecode=3c_185_SAC_ASN Length=0.13265 Units=m
New Line.LINE181_159 Bus1=181_151 Bus2=181_160 phases=3 Linecode=4c_300_SAC Length=8.6492 Units=m
New Line.LINE181_161 Bus1=181_152 Bus2=181_162 phases=3 Linecode=3c_185_SAC_ASN Length=0.10885 Units=m
New Line.LINE181_169 Bus1=181_160 Bus2=181_170 phases=3 Linecode=4c_300_SAC Length=18.6566 Units=m
New Line.LINE181_172 Bus1=181_162 Bus2=181_173 phases=3 Linecode=3c_185_SAC_ASN Length=0.11474 Units=m
New Line.LINE181_180 Bus1=181_170 Bus2=181_181 phases=3 Linecode=4c_185_SAC Length=1.9276 Units=m
New Line.LINE181_183 Bus1=181_173 Bus2=181_184 phases=3 Linecode=3c_185_SAC_ASN Length=7.0039 Units=m
New Line.LINE181_192 Bus1=181_181 Bus2=181_193 phases=3 Linecode=4c_185_SAC Length=1.5189 Units=m
New Line.LINE181_195 Bus1=181_184 Bus2=181_196 phases=3 Linecode=3c_185_SAC_ASN Length=0.14202 Units=m
New Line.LINE181_202 Bus1=181_191 Bus2=181_203 phases=3 Linecode=.04_PSC Length=3.5708 Units=m
New Line.LINE181_209 Bus1=181_196 Bus2=181_210 phases=3 Linecode=3c_185_SAC_ASN Length=0.16488 Units=m
New Line.LINE181_213 Bus1=181_199 Bus2=181_214 phases=3 Linecode=.04_PSC Length=4.6735 Units=m
New Line.LINE181_223 Bus1=181_210 Bus2=181_224 phases=3 Linecode=3c_185_SAC_ASN Length=0.18065 Units=m
New Line.LINE181_229 Bus1=181_216 Bus2=181_230 phases=3 Linecode=.04_PSC Length=4.1692 Units=m
New Line.LINE181_239 Bus1=181_224 Bus2=181_240 phases=3 Linecode=3c_185_SAC_ASN Length=0.19854 Units=m
New Line.LINE181_254 Bus1=181_240 Bus2=181_255 phases=3 Linecode=3c_185_SAC_ASN Length=0.31745 Units=m
New Line.LINE181_269 Bus1=181_254 Bus2=181_270 phases=3 Linecode=.04_PSC Length=3.7482 Units=m
New Line.LINE181_270 Bus1=181_255 Bus2=181_271 phases=3 Linecode=3c_185_SAC_ASN Length=0.37249 Units=m
New Line.LINE181_284 Bus1=181_271 Bus2=181_285 phases=3 Linecode=3c_185_SAC_ASN Length=0.3414 Units=m
New Line.LINE181_298 Bus1=181_285 Bus2=181_299 phases=3 Linecode=3c_185_SAC_ASN Length=0.42052 Units=m
New Line.LINE181_312 Bus1=181_299 Bus2=181_313 phases=3 Linecode=3c_185_SAC_ASN Length=0.31831 Units=m
New Line.LINE181_326 Bus1=181_313 Bus2=181_327 phases=3 Linecode=3c_185_SAC_ASN Length=0.65266 Units=m
New Line.LINE181_340 Bus1=181_327 Bus2=181_341 phases=3 Linecode=4c_120_SAC Length=0.7975 Units=m
New Line.LINE181_354 Bus1=181_341 Bus2=181_355 phases=3 Linecode=4c_120_SAC Length=0.78353 Units=m
New Line.LINE181_368 Bus1=181_355 Bus2=181_369 phases=3 Linecode=4c_120_SAC Length=0.69826 Units=m
New Line.LINE181_377 Bus1=181_364 Bus2=181_378 phases=3 Linecode=.0225_PSC Length=5.5781 Units=m
New Line.LINE181_382 Bus1=181_369 Bus2=181_383 phases=3 Linecode=4c_120_SAC Length=0.84116 Units=m
New Line.LINE181_395 Bus1=181_383 Bus2=181_396 phases=3 Linecode=4c_120_SAC Length=0.92943 Units=m
New Line.LINE181_409 Bus1=181_396 Bus2=181_410 phases=3 Linecode=4c_120_SAC Length=7.2668 Units=m
New Line.LINE181_411 Bus1=181_397 Bus2=181_412 phases=3 Linecode=4c_120_SAC Length=11.8223 Units=m
New Line.LINE181_424 Bus1=181_410 Bus2=181_425 phases=3 Linecode=4c_120_SAC Length=8.3175 Units=m
New Line.LINE181_442 Bus1=181_425 Bus2=181_443 phases=3 Linecode=4c_120_SAC Length=10.6987 Units=m
New Line.LINE181_467 Bus1=181_447 Bus2=181_468 phases=3 Linecode=.0225_PSC Length=8.8381 Units=m
New Line.LINE181_490 Bus1=181_468 Bus2=181_491 phases=3 Linecode=.0225_PSC Length=4.1514 Units=m
New Line.LINE181_517 Bus1=181_493 Bus2=181_518 phases=3 Linecode=4c_120_SAC Length=2.428 Units=m
New Line.LINE181_525 Bus1=181_501 Bus2=181_526 phases=3 Linecode=.04_PSC Length=4.1328 Units=m
New Line.LINE181_542 Bus1=181_518 Bus2=181_543 phases=3 Linecode=4c_120_SAC Length=9.3104 Units=m
New Line.LINE181_560 Bus1=181_535 Bus2=181_561 phases=3 Linecode=4c_120_SAC Length=2.0746 Units=m
New Line.LINE181_568 Bus1=181_543 Bus2=181_569 phases=3 Linecode=.0225_PSC Length=0.3281 Units=m
New Line.LINE181_587 Bus1=181_561 Bus2=181_588 phases=3 Linecode=.04_PSC Length=0.33189 Units=m
New Line.LINE181_590 Bus1=181_562 Bus2=181_591 phases=3 Linecode=.0225_PSC Length=4.5543 Units=m
New Line.LINE181_597 Bus1=181_569 Bus2=181_598 phases=3 Linecode=.0225_PSC Length=0.068731 Units=m
New Line.LINE181_616 Bus1=181_588 Bus2=181_617 phases=3 Linecode=.04_PSC Length=0.16194 Units=m
New Line.LINE181_624 Bus1=181_598 Bus2=181_625 phases=3 Linecode=.0225_PSC Length=0.044599 Units=m
New Line.LINE181_643 Bus1=181_617 Bus2=181_644 phases=3 Linecode=.04_PSC Length=0.17014 Units=m
New Line.LINE181_651 Bus1=181_625 Bus2=181_652 phases=3 Linecode=.0225_PSC Length=0.038948 Units=m
New Line.LINE181_669 Bus1=181_644 Bus2=181_670 phases=3 Linecode=.04_PSC Length=0.19028 Units=m
New Line.LINE181_677 Bus1=181_652 Bus2=181_678 phases=3 Linecode=.0225_PSC Length=0.043186 Units=m
New Line.LINE181_681 Bus1=181_656 Bus2=181_682 phases=3 Linecode=.0225_PSC Length=4.3968 Units=m
New Line.LINE181_695 Bus1=181_670 Bus2=181_696 phases=3 Linecode=.04_PSC Length=0.15721 Units=m
New Line.LINE181_703 Bus1=181_678 Bus2=181_704 phases=3 Linecode=.0225_PSC Length=0.063906 Units=m
New Line.LINE181_720 Bus1=181_696 Bus2=181_721 phases=3 Linecode=.04_PSC Length=0.19641 Units=m
New Line.LINE181_728 Bus1=181_704 Bus2=181_729 phases=3 Linecode=.0225_PSC Length=2.9037 Units=m
New Line.LINE181_743 Bus1=181_721 Bus2=181_744 phases=3 Linecode=.04_PSC Length=0.2813 Units=m
New Line.LINE181_751 Bus1=181_729 Bus2=181_752 phases=3 Linecode=.0225_PSC Length=4.0317 Units=m
New Line.LINE181_766 Bus1=181_744 Bus2=181_767 phases=3 Linecode=.04_PSC Length=0.234 Units=m
New Line.LINE181_774 Bus1=181_752 Bus2=181_775 phases=3 Linecode=.0225_PSC Length=0.49458 Units=m
New Line.LINE181_789 Bus1=181_767 Bus2=181_790 phases=3 Linecode=.04_PSC Length=0.23536 Units=m
New Line.LINE181_798 Bus1=181_775 Bus2=181_799 phases=3 Linecode=.04_PSC Length=4.8105 Units=m
New Line.LINE181_814 Bus1=181_790 Bus2=181_815 phases=3 Linecode=.04_PSC Length=0.23277 Units=m
New Line.LINE181_820 Bus1=181_795 Bus2=181_821 phases=3 Linecode=.0225_PSC Length=3.4829 Units=m
New Line.LINE181_826 Bus1=181_802 Bus2=181_827 phases=3 Linecode=4c_185_SAC Length=12.7797 Units=m
New Line.LINE181_840 Bus1=181_815 Bus2=181_841 phases=3 Linecode=.04_PSC Length=5.0441 Units=m
New Line.LINE181_866 Bus1=181_841 Bus2=181_867 phases=3 Linecode=.04_PSC Length=0.91389 Units=m
New Line.LINE181_891 Bus1=181_867 Bus2=181_892 phases=3 Linecode=.04_PSC Length=1.2245 Units=m
New Line.LINE181_895 Bus1=181_870 Bus2=181_896 phases=3 Linecode=.04_PSC Length=5.4457 Units=m
New Line.LINE181_916 Bus1=181_892 Bus2=181_917 phases=3 Linecode=.04_PSC Length=0.59236 Units=m
New Line.LINE181_939 Bus1=181_917 Bus2=181_940 phases=3 Linecode=.04_PSC Length=0.39518 Units=m
New Line.LINE181_953 Bus1=181_931 Bus2=181_954 phases=3 Linecode=.0225_PSC Length=2.989 Units=m
New Line.LINE181_959 Bus1=181_936 Bus2=181_960 phases=3 Linecode=.04_PSC Length=5.5925 Units=m
New Line.LINE181_963 Bus1=181_940 Bus2=181_964 phases=3 Linecode=.04_PSC Length=0.62954 Units=m
New Line.LINE181_965 Bus1=181_941 Bus2=181_966 phases=3 Linecode=.04_PSC Length=4.6884 Units=m
New Line.LINE181_981 Bus1=181_957 Bus2=181_982 phases=3 Linecode=.04_PSC Length=4.2816 Units=m
New Line.LINE181_987 Bus1=181_964 Bus2=181_988 phases=3 Linecode=.04_PSC Length=0.65311 Units=m
New Line.LINE181_1009 Bus1=181_988 Bus2=181_1010 phases=3 Linecode=.04_PSC Length=0.48764 Units=m
New Line.LINE181_1030 Bus1=181_1010 Bus2=181_1031 phases=3 Linecode=.04_PSC Length=0.41812 Units=m
New Line.LINE181_1051 Bus1=181_1031 Bus2=181_1052 phases=3 Linecode=.04_PSC Length=0.55225 Units=m
New Line.LINE181_1072 Bus1=181_1052 Bus2=181_1073 phases=3 Linecode=.04_PSC Length=0.28123 Units=m
New Line.LINE181_1088 Bus1=181_1068 Bus2=181_1089 phases=3 Linecode=.04_PSC Length=3.6783 Units=m
New Line.LINE181_1093 Bus1=181_1073 Bus2=181_1094 phases=3 Linecode=.04_PSC Length=0.23338 Units=m
New Line.LINE181_1098 Bus1=181_1077 Bus2=181_1099 phases=3 Linecode=.04_PSC Length=4.0336 Units=m
New Line.LINE181_1104 Bus1=181_1083 Bus2=181_1105 phases=3 Linecode=.04_PSC Length=4.4765 Units=m
New Line.LINE181_1114 Bus1=181_1094 Bus2=181_1115 phases=3 Linecode=.04_PSC Length=0.3542 Units=m
New Line.LINE181_1132 Bus1=181_1114 Bus2=181_1133 phases=3 Linecode=.04_PSC Length=3.7198 Units=m
New Line.LINE181_1133 Bus1=181_1115 Bus2=181_1134 phases=3 Linecode=.04_PSC Length=0.36592 Units=m
New Line.LINE181_1151 Bus1=181_1134 Bus2=181_1152 phases=3 Linecode=.04_PSC Length=0.2868 Units=m
New Line.LINE181_1169 Bus1=181_1152 Bus2=181_1170 phases=3 Linecode=.04_PSC Length=0.36436 Units=m
New Line.LINE181_1173 Bus1=181_1156 Bus2=181_1174 phases=3 Linecode=.04_PSC Length=5.4228 Units=m
New Line.LINE181_1186 Bus1=181_1168 Bus2=181_1187 phases=3 Linecode=.04_PSC Length=3.7668 Units=m
New Line.LINE181_1188 Bus1=181_1170 Bus2=181_1189 phases=3 Linecode=.04_PSC Length=0.30593 Units=m
New Line.LINE181_1204 Bus1=181_1189 Bus2=181_1205 phases=3 Linecode=.04_PSC Length=0.4892 Units=m
New Line.LINE181_1220 Bus1=181_1205 Bus2=181_1221 phases=3 Linecode=.04_PSC Length=0.45266 Units=m
New Line.LINE181_1236 Bus1=181_1221 Bus2=181_1237 phases=3 Linecode=.04_PSC Length=0.13018 Units=m
New Line.LINE181_1250 Bus1=181_1237 Bus2=181_1251 phases=3 Linecode=.04_PSC Length=0.19126 Units=m
New Line.LINE181_1256 Bus1=181_1242 Bus2=181_1257 phases=3 Linecode=.04_PSC Length=4.7418 Units=m
New Line.LINE181_1265 Bus1=181_1251 Bus2=181_1266 phases=3 Linecode=.04_PSC Length=0.16227 Units=m
New Line.LINE181_1279 Bus1=181_1266 Bus2=181_1280 phases=3 Linecode=.04_PSC Length=0.13437 Units=m
New Line.LINE181_1292 Bus1=181_1280 Bus2=181_1293 phases=3 Linecode=.04_PSC Length=0.77624 Units=m
New Line.LINE181_1306 Bus1=181_1293 Bus2=181_1307 phases=3 Linecode=.04_PSC Length=4.7823 Units=m
New Line.LINE181_1310 Bus1=181_1296 Bus2=181_1311 phases=3 Linecode=.04_PSC Length=3.8439 Units=m
New Line.LINE181_1313 Bus1=181_1298 Bus2=181_1314 phases=3 Linecode=.04_PSC Length=4.5545 Units=m
New Line.LINE181_1328 Bus1=181_1318 Bus2=181_1329 phases=3 Linecode=.04_PSC Length=5.2267 Units=m
New Line.LINE181_Cmpd_0 Bus1=181_827 Bus2=181_1296 phases=3 Linecode=.04_PSC Length=18.324491 Units=m
New Line.LINE181_Cmpd_1 Bus1=181_1 Bus2=181_75 phases=3 Linecode=4c_300_SAC Length=150.015054 Units=m
New Line.LINE181_Cmpd_2 Bus1=181_425 Bus2=181_957 phases=3 Linecode=.04_PSC Length=10.699932 Units=m
New Line.LINE181_Cmpd_3 Bus1=181_802 Bus2=181_1083 phases=3 Linecode=.0225_PSC Length=9.751221 Units=m
New Line.LINE181_Cmpd_4 Bus1=181_219 Bus2=181_802 phases=3 Linecode=4c_185_SAC Length=29.07115 Units=m
New Line.LINE181_Cmpd_5 Bus1=181_1077 Bus2=181_1308 phases=3 Linecode=.04_PSC Length=12.264343 Units=m
New Line.LINE181_Cmpd_6 Bus1=181_1068 Bus2=181_1326 phases=3 Linecode=.04_PSC Length=15.09543 Units=m
New Line.LINE181_Cmpd_7 Bus1=181_1293 Bus2=181_1407 phases=3 Linecode=.04_PSC Length=14.28132 Units=m
New Line.LINE181_Cmpd_8 Bus1=181_493 Bus2=181_1156 phases=3 Linecode=.04_PSC Length=26.583901 Units=m
New Line.LINE181_Cmpd_9 Bus1=181_193 Bus2=181_501 phases=3 Linecode=.04_PSC Length=10.435966 Units=m
New Line.LINE181_Cmpd_10 Bus1=181_443 Bus2=181_1318 phases=3 Linecode=.04_PSC Length=23.844045 Units=m
New Line.LINE181_Cmpd_11 Bus1=181_254 Bus2=181_457 phases=3 Linecode=.0225_PSC Length=13.72072 Units=m
New Line.LINE181_Cmpd_12 Bus1=181_75 Bus2=181_397 phases=3 Linecode=4c_120_SAC Length=28.497156 Units=m
New Line.LINE181_Cmpd_13 Bus1=181_425 Bus2=181_1068 phases=3 Linecode=.04_PSC Length=11.300024 Units=m
New Line.LINE181_Cmpd_14 Bus1=181_656 Bus2=181_1000 phases=3 Linecode=.0225_PSC Length=12.520605 Units=m
New Line.LINE181_Cmpd_15 Bus1=181_870 Bus2=181_1154 phases=3 Linecode=.04_PSC Length=12.494008 Units=m
New Line.LINE181_Cmpd_16 Bus1=181_93 Bus2=181_191 phases=3 Linecode=.0225_PSC Length=11.911701 Units=m
New Line.LINE181_Cmpd_17 Bus1=181_412 Bus2=181_941 phases=3 Linecode=.04_PSC Length=22.566065 Units=m
New Line.LINE181_Cmpd_18 Bus1=181_199 Bus2=181_450 phases=3 Linecode=.0225_PSC Length=12.061278 Units=m
New Line.LINE181_Cmpd_19 Bus1=181_1156 Bus2=181_1346 phases=3 Linecode=.04_PSC Length=12.67079 Units=m
New Line.LINE181_Cmpd_20 Bus1=181_957 Bus2=181_1300 phases=3 Linecode=.04_PSC Length=16.79491 Units=m
New Line.LINE181_Cmpd_21 Bus1=181_501 Bus2=181_884 phases=3 Linecode=.04_PSC Length=12.79503 Units=m
New Line.LINE181_Cmpd_22 Bus1=181_80 Bus2=181_93 phases=3 Linecode=4c_300_SAC Length=45.6678 Units=m
New Line.LINE181_Cmpd_23 Bus1=181_219 Bus2=181_656 phases=3 Linecode=.0225_PSC Length=11.5527 Units=m
New Line.LINE181_Cmpd_24 Bus1=181_775 Bus2=181_1058 phases=3 Linecode=.0225_PSC Length=10.518906 Units=m
New Line.LINE181_Cmpd_25 Bus1=181_219 Bus2=181_931 phases=3 Linecode=.0225_PSC Length=24.895724 Units=m
New Line.LINE181_Cmpd_26 Bus1=181_493 Bus2=181_1077 phases=3 Linecode=.04_PSC Length=17.147649 Units=m
New Line.LINE181_Cmpd_27 Bus1=181_802 Bus2=181_1298 phases=3 Linecode=.04_PSC Length=24.01968 Units=m
New Line.LINE181_Cmpd_28 Bus1=181_151 Bus2=181_254 phases=3 Linecode=.0225_PSC Length=8.81054 Units=m
New Line.LINE181_Cmpd_29 Bus1=181_397 Bus2=181_562 phases=3 Linecode=.0225_PSC Length=8.07748 Units=m
New Line.LINE181_Cmpd_30 Bus1=181_931 Bus2=181_1229 phases=3 Linecode=.0225_PSC Length=13.03891 Units=m
New Line.LINE181_Cmpd_31 Bus1=181_1318 Bus2=181_1408 phases=3 Linecode=.04_PSC Length=13.939627 Units=m
New Line.LINE181_Cmpd_32 Bus1=181_193 Bus2=181_364 phases=3 Linecode=.0225_PSC Length=17.51951 Units=m
New Line.LINE181_Cmpd_33 Bus1=181_412 Bus2=181_870 phases=3 Linecode=.04_PSC Length=16.53393 Units=m
New Line.LINE181_Cmpd_34 Bus1=181_216 Bus2=181_415 phases=3 Linecode=.0225_PSC Length=12.310759 Units=m
New Line.LINE181_Cmpd_35 Bus1=181_1083 Bus2=181_1315 phases=3 Linecode=.0225_PSC Length=12.711038 Units=m
New Line.LINE181_Cmpd_36 Bus1=181_191 Bus2=181_401 phases=3 Linecode=.0225_PSC Length=12.707701 Units=m
New Line.LINE181_Cmpd_37 Bus1=181_110 Bus2=181_315 phases=3 Linecode=.0225_PSC Length=12.688344 Units=m
New Line.LINE181_Cmpd_38 Bus1=181_795 Bus2=181_1097 phases=3 Linecode=.0225_PSC Length=10.487658 Units=m
New Line.LINE181_Cmpd_39 Bus1=181_447 Bus2=181_795 phases=3 Linecode=.0225_PSC Length=19.96114 Units=m
New Line.LINE181_Cmpd_40 Bus1=181_936 Bus2=181_1327 phases=3 Linecode=.0225_PSC Length=15.67984 Units=m
New Line.LINE181_Cmpd_41 Bus1=181_468 Bus2=181_819 phases=3 Linecode=.0225_PSC Length=10.876876 Units=m
New Line.LINE181_Cmpd_42 Bus1=181_80 Bus2=181_110 phases=3 Linecode=.0225_PSC Length=8.02622 Units=m
New Line.LINE181_Cmpd_43 Bus1=181_941 Bus2=181_1267 phases=3 Linecode=.04_PSC Length=11.320335 Units=m
New Line.LINE181_Cmpd_44 Bus1=181_115 Bus2=181_151 phases=3 Linecode=4c_300_SAC Length=23.53183 Units=m
New Line.LINE181_Cmpd_45 Bus1=181_1298 Bus2=181_1391 phases=3 Linecode=.04_PSC Length=12.962932 Units=m
New Line.LINE181_Cmpd_46 Bus1=181_535 Bus2=181_1168 phases=3 Linecode=.04_PSC Length=10.269334 Units=m
New Line.LINE181_Cmpd_47 Bus1=181_1114 Bus2=181_1320 phases=3 Linecode=.04_PSC Length=14.84834 Units=m
New Line.LINE181_Cmpd_48 Bus1=181_93 Bus2=181_216 phases=3 Linecode=.0225_PSC Length=24.02556 Units=m
New Line.LINE181_Cmpd_49 Bus1=181_1168 Bus2=181_1357 phases=3 Linecode=.04_PSC Length=17.04444 Units=m
New Line.LINE181_Cmpd_50 Bus1=181_535 Bus2=181_1114 phases=3 Linecode=.04_PSC Length=10.594048 Units=m
New Line.LINE181_Cmpd_51 Bus1=181_1296 Bus2=181_1394 phases=3 Linecode=.04_PSC Length=12.474535 Units=m
New Line.LINE181_Cmpd_52 Bus1=181_1242 Bus2=181_1401 phases=3 Linecode=.04_PSC Length=13.95499 Units=m
New Line.LINE181_Cmpd_53 Bus1=181_562 Bus2=181_918 phases=3 Linecode=.0225_PSC Length=11.731908 Units=m
New Line.LINE181_Cmpd_54 Bus1=181_827 Bus2=181_1242 phases=3 Linecode=.04_PSC Length=18.113488 Units=m
New Line.LINE181_Cmpd_55 Bus1=181_364 Bus2=181_710 phases=3 Linecode=.0225_PSC Length=13.661973 Units=m
New Line.LINE181_Cmpd_56 Bus1=181_443 Bus2=181_936 phases=3 Linecode=.0225_PSC Length=15.786901 Units=m
New Line.LINE181_Cmpd_57 Bus1=181_80 Bus2=181_199 phases=3 Linecode=.0225_PSC Length=22.278452 Units=m
New Line.LINE181_Cmpd_58 Bus1=181_193 Bus2=181_219 phases=3 Linecode=4c_185_SAC Length=25.0501 Units=m
New Line.LINE181_Cmpd_59 Bus1=181_93 Bus2=181_115 phases=3 Linecode=4c_300_SAC Length=3.40424 Units=m
New Line.LINE181_Cmpd_60 Bus1=181_75 Bus2=181_80 phases=3 Linecode=4c_300_SAC Length=19.2816 Units=m
New Line.LINE181_Cmpd_61 Bus1=181_443 Bus2=181_535 phases=3 Linecode=4c_120_SAC Length=28.0998 Units=m
New Line.LINE181_Cmpd_62 Bus1=181_412 Bus2=181_447 phases=3 Linecode=4c_120_SAC Length=21.9159 Units=m
New Line.LINE181_Cmpd_63 Bus1=181_447 Bus2=181_493 phases=3 Linecode=4c_120_SAC Length=24.6193 Units=m
