New Line.LINE30 Bus1=29 Bus2=31 phases=3 Linecode=4c_.25 Length=2.5219 Units=m
New Line.LINE60 Bus1=59 Bus2=61 phases=3 Linecode=4c_.3 Length=1.7201 Units=m
New Line.LINE61 Bus1=59 Bus2=62 phases=3 Linecode=4c_.3 Length=1.7201 Units=m
New Line.LINE63 Bus1=61 Bus2=64 phases=3 Linecode=4c_.3 Length=0.40106 Units=m
New Line.LINE64 Bus1=61 Bus2=65 phases=3 Linecode=4c_.3 Length=0.40106 Units=m
New Line.LINE66 Bus1=64 Bus2=67 phases=3 Linecode=4c_.3 Length=0.69797 Units=m
New Line.LINE67 Bus1=64 Bus2=68 phases=3 Linecode=4c_.3 Length=0.69797 Units=m
New Line.LINE69 Bus1=67 Bus2=70 phases=3 Linecode=4c_.3 Length=2.5268 Units=m
New Line.LINE70 Bus1=67 Bus2=71 phases=3 Linecode=4c_.3 Length=2.5268 Units=m
New Line.LINE72 Bus1=70 Bus2=73 phases=3 Linecode=4c_.3 Length=2.8369 Units=m
New Line.LINE73 Bus1=70 Bus2=74 phases=3 Linecode=4c_.3 Length=2.8369 Units=m
New Line.LINE75 Bus1=73 Bus2=76 phases=3 Linecode=4c_.3 Length=4.779 Units=m
New Line.LINE76 Bus1=73 Bus2=77 phases=3 Linecode=4c_.3 Length=4.779 Units=m
New Line.LINE78 Bus1=76 Bus2=79 phases=3 Linecode=4c_.3 Length=6.1817 Units=m
New Line.LINE79 Bus1=76 Bus2=80 phases=3 Linecode=4c_.3 Length=6.1817 Units=m
New Line.LINE81 Bus1=79 Bus2=82 phases=3 Linecode=4c_.3 Length=7.3749 Units=m
New Line.LINE82 Bus1=79 Bus2=83 phases=3 Linecode=4c_.3 Length=7.3749 Units=m
New Line.LINE84 Bus1=82 Bus2=85 phases=3 Linecode=4c_.3 Length=6.2018 Units=m
New Line.LINE85 Bus1=82 Bus2=86 phases=3 Linecode=4c_.3 Length=6.2018 Units=m
New Line.LINE87 Bus1=85 Bus2=88 phases=3 Linecode=4c_.3 Length=7.7846 Units=m
New Line.LINE88 Bus1=85 Bus2=89 phases=3 Linecode=4c_.3 Length=7.7846 Units=m
New Line.LINE90 Bus1=88 Bus2=91 phases=3 Linecode=4c_.3 Length=15.9976 Units=m
New Line.LINE91 Bus1=88 Bus2=92 phases=3 Linecode=4c_.3 Length=15.9976 Units=m
New Line.LINE93 Bus1=91 Bus2=94 phases=3 Linecode=4c_.3 Length=12.5019 Units=m
New Line.LINE94 Bus1=91 Bus2=95 phases=3 Linecode=4c_.3 Length=12.5019 Units=m
New Line.LINE96 Bus1=94 Bus2=97 phases=3 Linecode=4c_.3 Length=0.60844 Units=m
New Line.LINE97 Bus1=94 Bus2=98 phases=3 Linecode=4c_.3 Length=0.60844 Units=m
New Line.LINE99 Bus1=97 Bus2=100 phases=3 Linecode=4c_.3 Length=0.68412 Units=m
New Line.LINE100 Bus1=97 Bus2=101 phases=3 Linecode=4c_.3 Length=0.68412 Units=m
New Line.LINE102 Bus1=100 Bus2=103 phases=3 Linecode=4c_.3 Length=1.0432 Units=m
New Line.LINE103 Bus1=100 Bus2=104 phases=3 Linecode=4c_.3 Length=1.0432 Units=m
New Line.LINE104 Bus1=102 Bus2=105 phases=3 Linecode=4c_.12 Length=1.939 Units=m
New Line.LINE105 Bus1=102 Bus2=106 phases=3 Linecode=4c_.12 Length=1.7845 Units=m
New Line.LINE106 Bus1=102 Bus2=107 phases=3 Linecode=4c_.12 Length=1.7845 Units=m
New Line.LINE107 Bus1=103 Bus2=108 phases=3 Linecode=4c_.3 Length=0.87118 Units=m
New Line.LINE108 Bus1=103 Bus2=109 phases=3 Linecode=4c_.3 Length=0.87118 Units=m
New Line.LINE110 Bus1=105 Bus2=111 phases=3 Linecode=4c_.12 Length=1.6398 Units=m
New Line.LINE111 Bus1=106 Bus2=112 phases=3 Linecode=4c_.12 Length=2.0756 Units=m
New Line.LINE112 Bus1=106 Bus2=113 phases=3 Linecode=4c_.12 Length=2.0756 Units=m
New Line.LINE113 Bus1=108 Bus2=114 phases=3 Linecode=4c_.3 Length=1.1352 Units=m
New Line.LINE114 Bus1=108 Bus2=115 phases=3 Linecode=4c_.3 Length=1.1352 Units=m
New Line.LINE116 Bus1=111 Bus2=117 phases=3 Linecode=2c_.04 Length=6.8256 Units=m
New Line.LINE118 Bus1=112 Bus2=119 phases=3 Linecode=4c_.12 Length=0.69895 Units=m
New Line.LINE119 Bus1=112 Bus2=120 phases=3 Linecode=4c_.12 Length=0.69895 Units=m
New Line.LINE120 Bus1=114 Bus2=121 phases=3 Linecode=4c_.3 Length=0.79438 Units=m
New Line.LINE121 Bus1=114 Bus2=122 phases=3 Linecode=4c_.3 Length=0.79438 Units=m
New Line.LINE123 Bus1=117 Bus2=124 phases=3 Linecode=2c_.04 Length=4.4985 Units=m
New Line.LINE126 Bus1=119 Bus2=127 phases=3 Linecode=4c_.12 Length=0.3565 Units=m
New Line.LINE127 Bus1=119 Bus2=128 phases=3 Linecode=4c_.12 Length=0.3565 Units=m
New Line.LINE128 Bus1=121 Bus2=129 phases=3 Linecode=4c_.3 Length=1.0117 Units=m
New Line.LINE129 Bus1=121 Bus2=130 phases=3 Linecode=4c_.3 Length=1.0117 Units=m
New Line.LINE133 Bus1=127 Bus2=134 phases=3 Linecode=2c_.04 Length=8.8692 Units=m
New Line.LINE134 Bus1=127 Bus2=135 phases=3 Linecode=4c_.12 Length=0.26928 Units=m
New Line.LINE135 Bus1=127 Bus2=136 phases=3 Linecode=4c_.12 Length=0.26928 Units=m
New Line.LINE136 Bus1=129 Bus2=137 phases=3 Linecode=4c_.3 Length=0.76066 Units=m
New Line.LINE137 Bus1=129 Bus2=138 phases=3 Linecode=4c_.3 Length=0.76066 Units=m
New Line.LINE141 Bus1=134 Bus2=142 phases=3 Linecode=2c_.04 Length=5.0849 Units=m
New Line.LINE143 Bus1=135 Bus2=144 phases=3 Linecode=4c_.12 Length=0.87341 Units=m
New Line.LINE144 Bus1=135 Bus2=145 phases=3 Linecode=4c_.12 Length=0.87341 Units=m
New Line.LINE145 Bus1=137 Bus2=146 phases=3 Linecode=4c_.3 Length=0.90927 Units=m
New Line.LINE146 Bus1=137 Bus2=147 phases=3 Linecode=4c_.3 Length=0.90927 Units=m
New Line.LINE151 Bus1=144 Bus2=152 phases=3 Linecode=4c_.12 Length=1.6002 Units=m
New Line.LINE152 Bus1=144 Bus2=153 phases=3 Linecode=4c_.12 Length=1.6002 Units=m
New Line.LINE153 Bus1=146 Bus2=154 phases=3 Linecode=4c_.3 Length=0.88325 Units=m
New Line.LINE154 Bus1=146 Bus2=155 phases=3 Linecode=4c_.3 Length=0.88325 Units=m
New Line.LINE159 Bus1=152 Bus2=160 phases=3 Linecode=4c_.12 Length=0.77018 Units=m
New Line.LINE160 Bus1=152 Bus2=161 phases=3 Linecode=4c_.12 Length=0.77018 Units=m
New Line.LINE161 Bus1=154 Bus2=162 phases=3 Linecode=4c_.3 Length=1.0765 Units=m
New Line.LINE162 Bus1=154 Bus2=163 phases=3 Linecode=4c_.3 Length=1.0765 Units=m
New Line.LINE167 Bus1=160 Bus2=168 phases=3 Linecode=4c_.12 Length=1.2125 Units=m
New Line.LINE168 Bus1=160 Bus2=169 phases=3 Linecode=4c_.12 Length=1.2125 Units=m
New Line.LINE169 Bus1=162 Bus2=170 phases=3 Linecode=4c_.3 Length=0.93304 Units=m
New Line.LINE170 Bus1=162 Bus2=171 phases=3 Linecode=4c_.3 Length=0.93304 Units=m
New Line.LINE175 Bus1=168 Bus2=176 phases=3 Linecode=4c_.12 Length=1.2768 Units=m
New Line.LINE176 Bus1=168 Bus2=177 phases=3 Linecode=4c_.12 Length=1.2768 Units=m
New Line.LINE177 Bus1=170 Bus2=178 phases=3 Linecode=4c_.3 Length=0.94568 Units=m
New Line.LINE178 Bus1=170 Bus2=179 phases=3 Linecode=4c_.3 Length=0.94568 Units=m
New Line.LINE185 Bus1=176 Bus2=186 phases=3 Linecode=4c_.12 Length=3.0573 Units=m
New Line.LINE186 Bus1=176 Bus2=187 phases=3 Linecode=4c_.12 Length=3.0573 Units=m
New Line.LINE187 Bus1=178 Bus2=188 phases=3 Linecode=4c_.3 Length=1.4233 Units=m
New Line.LINE188 Bus1=178 Bus2=189 phases=3 Linecode=4c_.3 Length=1.4233 Units=m
New Line.LINE195 Bus1=186 Bus2=196 phases=3 Linecode=4c_.12 Length=0.095692 Units=m
New Line.LINE196 Bus1=186 Bus2=197 phases=3 Linecode=4c_.12 Length=0.095692 Units=m
New Line.LINE197 Bus1=188 Bus2=198 phases=3 Linecode=4c_.3 Length=0.44314 Units=m
New Line.LINE198 Bus1=188 Bus2=199 phases=3 Linecode=4c_.3 Length=0.44314 Units=m
New Line.LINE203 Bus1=194 Bus2=204 phases=3 Linecode=2c_.04 Length=8.3069 Units=m
New Line.LINE206 Bus1=196 Bus2=207 phases=3 Linecode=2c_.04 Length=7.333 Units=m
New Line.LINE207 Bus1=196 Bus2=208 phases=3 Linecode=4c_.12 Length=5.7086 Units=m
New Line.LINE208 Bus1=196 Bus2=209 phases=3 Linecode=4c_.12 Length=5.7086 Units=m
New Line.LINE209 Bus1=198 Bus2=210 phases=3 Linecode=4c_.3 Length=0.40655 Units=m
New Line.LINE210 Bus1=198 Bus2=211 phases=3 Linecode=4c_.3 Length=0.40655 Units=m
New Line.LINE215 Bus1=204 Bus2=216 phases=3 Linecode=2c_.04 Length=3.7623 Units=m
New Line.LINE219 Bus1=207 Bus2=220 phases=3 Linecode=2c_.04 Length=4.0687 Units=m
New Line.LINE220 Bus1=207 Bus2=221 phases=3 Linecode=2c_.04 Length=0.51011 Units=m
New Line.LINE221 Bus1=207 Bus2=222 phases=3 Linecode=2c_.04 Length=0.51011 Units=m
New Line.LINE222 Bus1=208 Bus2=223 phases=3 Linecode=4c_.12 Length=4.9155 Units=m
New Line.LINE223 Bus1=208 Bus2=224 phases=3 Linecode=4c_.12 Length=4.9155 Units=m
New Line.LINE224 Bus1=210 Bus2=225 phases=3 Linecode=4c_.3 Length=0.37195 Units=m
New Line.LINE225 Bus1=210 Bus2=226 phases=3 Linecode=4c_.3 Length=0.37195 Units=m
New Line.LINE232 Bus1=218 Bus2=233 phases=3 Linecode=4c_.12 Length=4.1005 Units=m
New Line.LINE234 Bus1=221 Bus2=235 phases=3 Linecode=2c_.04 Length=0.092849 Units=m
New Line.LINE235 Bus1=221 Bus2=236 phases=3 Linecode=2c_.04 Length=0.092849 Units=m
New Line.LINE236 Bus1=223 Bus2=237 phases=3 Linecode=4c_.12 Length=4.3456 Units=m
New Line.LINE237 Bus1=223 Bus2=238 phases=3 Linecode=4c_.12 Length=4.3456 Units=m
New Line.LINE238 Bus1=225 Bus2=239 phases=3 Linecode=4c_.3 Length=0.28492 Units=m
New Line.LINE239 Bus1=225 Bus2=240 phases=3 Linecode=4c_.3 Length=0.28492 Units=m
New Line.LINE247 Bus1=233 Bus2=248 phases=3 Linecode=4c_.12 Length=1.8718 Units=m
New Line.LINE249 Bus1=235 Bus2=250 phases=3 Linecode=2c_.04 Length=0.069635 Units=m
New Line.LINE250 Bus1=235 Bus2=251 phases=3 Linecode=2c_.04 Length=0.069635 Units=m
New Line.LINE251 Bus1=237 Bus2=252 phases=3 Linecode=4c_.12 Length=0.45181 Units=m
New Line.LINE252 Bus1=237 Bus2=253 phases=3 Linecode=4c_.12 Length=0.45181 Units=m
New Line.LINE253 Bus1=239 Bus2=254 phases=3 Linecode=4c_.3 Length=1.272 Units=m
New Line.LINE254 Bus1=239 Bus2=255 phases=3 Linecode=4c_.3 Length=1.272 Units=m
New Line.LINE264 Bus1=250 Bus2=265 phases=3 Linecode=2c_.04 Length=0.059033 Units=m
New Line.LINE265 Bus1=250 Bus2=266 phases=3 Linecode=2c_.04 Length=0.059033 Units=m
New Line.LINE266 Bus1=252 Bus2=267 phases=3 Linecode=4c_.12 Length=5.0306 Units=m
New Line.LINE267 Bus1=252 Bus2=268 phases=3 Linecode=4c_.12 Length=5.0306 Units=m
New Line.LINE268 Bus1=254 Bus2=269 phases=3 Linecode=4c_.3 Length=4.5505 Units=m
New Line.LINE269 Bus1=254 Bus2=270 phases=3 Linecode=4c_.3 Length=4.5505 Units=m
New Line.LINE279 Bus1=265 Bus2=280 phases=3 Linecode=2c_.04 Length=0.041196 Units=m
New Line.LINE280 Bus1=265 Bus2=281 phases=3 Linecode=2c_.04 Length=0.041196 Units=m
New Line.LINE282 Bus1=267 Bus2=283 phases=3 Linecode=4c_.12 Length=5.1847 Units=m
New Line.LINE283 Bus1=267 Bus2=284 phases=3 Linecode=4c_.12 Length=5.1847 Units=m
New Line.LINE284 Bus1=269 Bus2=285 phases=3 Linecode=4c_.3 Length=3.0903 Units=m
New Line.LINE285 Bus1=269 Bus2=286 phases=3 Linecode=4c_.3 Length=3.0903 Units=m
New Line.LINE297 Bus1=280 Bus2=298 phases=3 Linecode=2c_.04 Length=0.058215 Units=m
New Line.LINE298 Bus1=280 Bus2=299 phases=3 Linecode=2c_.04 Length=0.058215 Units=m
New Line.LINE300 Bus1=283 Bus2=301 phases=3 Linecode=4c_.12 Length=1.8986 Units=m
New Line.LINE301 Bus1=283 Bus2=302 phases=3 Linecode=4c_.12 Length=1.8986 Units=m
New Line.LINE306 Bus1=288 Bus2=307 phases=3 Linecode=2c_.04 Length=5.4459 Units=m
New Line.LINE318 Bus1=298 Bus2=319 phases=3 Linecode=2c_.04 Length=0.095709 Units=m
New Line.LINE319 Bus1=298 Bus2=320 phases=3 Linecode=2c_.04 Length=0.095709 Units=m
New Line.LINE321 Bus1=301 Bus2=322 phases=3 Linecode=4c_.12 Length=6.7282 Units=m
New Line.LINE322 Bus1=301 Bus2=323 phases=3 Linecode=2c_.04 Length=7.9363 Units=m
New Line.LINE323 Bus1=301 Bus2=324 phases=3 Linecode=4c_.12 Length=6.7282 Units=m
New Line.LINE338 Bus1=319 Bus2=339 phases=3 Linecode=2c_.04 Length=0.11182 Units=m
New Line.LINE339 Bus1=319 Bus2=340 phases=3 Linecode=2c_.04 Length=0.11182 Units=m
New Line.LINE341 Bus1=322 Bus2=342 phases=3 Linecode=4c_.12 Length=2.5429 Units=m
New Line.LINE342 Bus1=322 Bus2=343 phases=3 Linecode=4c_.12 Length=2.5429 Units=m
New Line.LINE344 Bus1=323 Bus2=345 phases=3 Linecode=2c_.04 Length=4.8547 Units=m
New Line.LINE359 Bus1=339 Bus2=360 phases=3 Linecode=2c_.04 Length=0.33005 Units=m
New Line.LINE360 Bus1=339 Bus2=361 phases=3 Linecode=2c_.04 Length=0.33005 Units=m
New Line.LINE363 Bus1=342 Bus2=364 phases=3 Linecode=4c_.12 Length=6.4899 Units=m
New Line.LINE364 Bus1=342 Bus2=365 phases=3 Linecode=4c_.12 Length=6.4899 Units=m
New Line.LINE378 Bus1=360 Bus2=379 phases=3 Linecode=2c_.04 Length=0.09902 Units=m
New Line.LINE379 Bus1=360 Bus2=380 phases=3 Linecode=2c_.04 Length=0.09902 Units=m
New Line.LINE382 Bus1=364 Bus2=383 phases=3 Linecode=4c_.12 Length=1.4222 Units=m
New Line.LINE383 Bus1=364 Bus2=384 phases=3 Linecode=4c_.12 Length=1.4222 Units=m
New Line.LINE397 Bus1=379 Bus2=398 phases=3 Linecode=2c_.04 Length=0.07433 Units=m
New Line.LINE398 Bus1=379 Bus2=399 phases=3 Linecode=2c_.04 Length=0.07433 Units=m
New Line.LINE400 Bus1=382 Bus2=401 phases=3 Linecode=2c_.04 Length=4.3632 Units=m
New Line.LINE402 Bus1=383 Bus2=403 phases=3 Linecode=2c_.04 Length=1.2969 Units=m
New Line.LINE403 Bus1=383 Bus2=404 phases=3 Linecode=4c_.12 Length=9.1674 Units=m
New Line.LINE409 Bus1=389 Bus2=410 phases=3 Linecode=2c_.04 Length=6.0619 Units=m
New Line.LINE420 Bus1=398 Bus2=421 phases=3 Linecode=2c_.04 Length=0.10486 Units=m
New Line.LINE421 Bus1=398 Bus2=422 phases=3 Linecode=2c_.04 Length=0.10486 Units=m
New Line.LINE424 Bus1=404 Bus2=425 phases=3 Linecode=4c_.12 Length=9.9701 Units=m
New Line.LINE425 Bus1=404 Bus2=426 phases=3 Linecode=4c_.12 Length=9.9701 Units=m
New Line.LINE426 Bus1=404 Bus2=427 phases=3 Linecode=4c_.12 Length=7.8143 Units=m
New Line.LINE430 Bus1=408 Bus2=431 phases=3 Linecode=4c_.12 Length=4.4387 Units=m
New Line.LINE432 Bus1=408 Bus2=433 phases=3 Linecode=4c_.12 Length=4.4387 Units=m
New Line.LINE433 Bus1=408 Bus2=434 phases=3 Linecode=4c_.12 Length=4.4387 Units=m
New Line.LINE439 Bus1=415 Bus2=440 phases=3 Linecode=2c_.04 Length=4.9893 Units=m
New Line.LINE440 Bus1=415 Bus2=441 phases=3 Linecode=2c_.04 Length=4.9893 Units=m
New Line.LINE447 Bus1=421 Bus2=448 phases=3 Linecode=2c_.04 Length=0.11611 Units=m
New Line.LINE448 Bus1=421 Bus2=449 phases=3 Linecode=2c_.04 Length=0.11611 Units=m
New Line.LINE451 Bus1=425 Bus2=452 phases=3 Linecode=4c_.12 Length=0.81646 Units=m
New Line.LINE452 Bus1=425 Bus2=453 phases=3 Linecode=4c_.12 Length=0.81646 Units=m
New Line.LINE456 Bus1=431 Bus2=457 phases=3 Linecode=4c_.12 Length=10.495 Units=m
New Line.LINE457 Bus1=431 Bus2=458 phases=3 Linecode=4c_.12 Length=10.495 Units=m
New Line.LINE458 Bus1=431 Bus2=459 phases=3 Linecode=4c_.12 Length=10.3085 Units=m
New Line.LINE471 Bus1=448 Bus2=472 phases=3 Linecode=2c_.04 Length=0.159 Units=m
New Line.LINE472 Bus1=448 Bus2=473 phases=3 Linecode=2c_.04 Length=0.159 Units=m
New Line.LINE475 Bus1=452 Bus2=476 phases=3 Linecode=4c_.12 Length=0.88704 Units=m
New Line.LINE476 Bus1=452 Bus2=477 phases=3 Linecode=4c_.12 Length=0.88704 Units=m
New Line.LINE480 Bus1=457 Bus2=481 phases=3 Linecode=4c_.12 Length=0.90565 Units=m
New Line.LINE481 Bus1=457 Bus2=482 phases=3 Linecode=4c_.12 Length=0.90565 Units=m
New Line.LINE482 Bus1=457 Bus2=483 phases=3 Linecode=2c_.04 Length=6.1533 Units=m
New Line.LINE483 Bus1=457 Bus2=484 phases=3 Linecode=4c_.12 Length=0.90565 Units=m
New Line.LINE484 Bus1=457 Bus2=485 phases=3 Linecode=4c_.12 Length=0.18652 Units=m
New Line.LINE486 Bus1=459 Bus2=487 phases=3 Linecode=2c_.007 Length=0.78342 Units=m
New Line.LINE498 Bus1=472 Bus2=499 phases=3 Linecode=2c_.04 Length=8.5739 Units=m
New Line.LINE499 Bus1=472 Bus2=500 phases=3 Linecode=2c_.04 Length=8.5739 Units=m
New Line.LINE502 Bus1=476 Bus2=503 phases=3 Linecode=4c_.12 Length=0.99914 Units=m
New Line.LINE503 Bus1=476 Bus2=504 phases=3 Linecode=4c_.12 Length=0.99914 Units=m
New Line.LINE507 Bus1=481 Bus2=508 phases=3 Linecode=4c_.12 Length=1.5432 Units=m
New Line.LINE508 Bus1=481 Bus2=509 phases=3 Linecode=4c_.12 Length=1.5432 Units=m
New Line.LINE509 Bus1=481 Bus2=510 phases=3 Linecode=4c_.12 Length=1.5432 Units=m
New Line.LINE511 Bus1=483 Bus2=512 phases=3 Linecode=2c_.04 Length=5.0943 Units=m
New Line.LINE525 Bus1=499 Bus2=526 phases=3 Linecode=2c_.04 Length=0.28867 Units=m
New Line.LINE526 Bus1=499 Bus2=527 phases=3 Linecode=2c_.04 Length=0.28867 Units=m
New Line.LINE529 Bus1=503 Bus2=530 phases=3 Linecode=4c_.12 Length=0.90506 Units=m
New Line.LINE530 Bus1=503 Bus2=531 phases=3 Linecode=4c_.12 Length=0.90506 Units=m
New Line.LINE534 Bus1=508 Bus2=535 phases=3 Linecode=4c_.12 Length=12.5963 Units=m
New Line.LINE535 Bus1=508 Bus2=536 phases=3 Linecode=4c_.12 Length=12.5963 Units=m
New Line.LINE536 Bus1=508 Bus2=537 phases=3 Linecode=4c_.12 Length=12.5963 Units=m
New Line.LINE551 Bus1=526 Bus2=552 phases=3 Linecode=2c_.04 Length=0.19602 Units=m
New Line.LINE552 Bus1=526 Bus2=553 phases=3 Linecode=2c_.04 Length=0.19602 Units=m
New Line.LINE555 Bus1=530 Bus2=556 phases=3 Linecode=4c_.12 Length=1.0124 Units=m
New Line.LINE556 Bus1=530 Bus2=557 phases=3 Linecode=4c_.12 Length=1.0124 Units=m
New Line.LINE560 Bus1=535 Bus2=561 phases=3 Linecode=4c_.12 Length=3.9825 Units=m
New Line.LINE561 Bus1=535 Bus2=562 phases=3 Linecode=2c_.04 Length=2.6607 Units=m
New Line.LINE562 Bus1=535 Bus2=563 phases=3 Linecode=4c_.12 Length=3.9825 Units=m
New Line.LINE563 Bus1=535 Bus2=564 phases=3 Linecode=2c_.04 Length=2.6607 Units=m
New Line.LINE564 Bus1=535 Bus2=565 phases=3 Linecode=4c_.12 Length=3.9825 Units=m
New Line.LINE574 Bus1=547 Bus2=575 phases=3 Linecode=2c_.04 Length=2.344 Units=m
New Line.LINE575 Bus1=547 Bus2=576 phases=3 Linecode=2c_.04 Length=2.344 Units=m
New Line.LINE576 Bus1=548 Bus2=577 phases=3 Linecode=2c_.04 Length=6.3346 Units=m
New Line.LINE578 Bus1=549 Bus2=579 phases=3 Linecode=2c_.04 Length=5.3837 Units=m
New Line.LINE582 Bus1=552 Bus2=583 phases=3 Linecode=2c_.04 Length=0.22366 Units=m
New Line.LINE583 Bus1=552 Bus2=584 phases=3 Linecode=2c_.04 Length=0.22366 Units=m
New Line.LINE586 Bus1=556 Bus2=587 phases=3 Linecode=4c_.12 Length=1.5157 Units=m
New Line.LINE587 Bus1=556 Bus2=588 phases=3 Linecode=4c_.12 Length=1.5157 Units=m
New Line.LINE593 Bus1=561 Bus2=594 phases=3 Linecode=4c_.12 Length=4.0781 Units=m
New Line.LINE594 Bus1=561 Bus2=595 phases=3 Linecode=4c_.12 Length=4.0781 Units=m
New Line.LINE595 Bus1=561 Bus2=596 phases=3 Linecode=4c_.12 Length=4.0781 Units=m
New Line.LINE596 Bus1=562 Bus2=597 phases=3 Linecode=2c_.04 Length=5.5686 Units=m
New Line.LINE597 Bus1=562 Bus2=598 phases=3 Linecode=2c_.04 Length=5.5686 Units=m
New Line.LINE601 Bus1=568 Bus2=602 phases=3 Linecode=2c_.04 Length=5.3316 Units=m
New Line.LINE612 Bus1=583 Bus2=613 phases=3 Linecode=2c_.04 Length=0.23943 Units=m
New Line.LINE613 Bus1=583 Bus2=614 phases=3 Linecode=2c_.04 Length=0.23943 Units=m
New Line.LINE616 Bus1=587 Bus2=617 phases=3 Linecode=4c_.12 Length=1.0234 Units=m
New Line.LINE617 Bus1=587 Bus2=618 phases=3 Linecode=4c_.12 Length=1.0234 Units=m
New Line.LINE623 Bus1=594 Bus2=624 phases=3 Linecode=4c_.12 Length=9.0874 Units=m
New Line.LINE624 Bus1=594 Bus2=625 phases=3 Linecode=4c_.12 Length=9.0874 Units=m
New Line.LINE625 Bus1=594 Bus2=626 phases=3 Linecode=4c_.12 Length=9.0874 Units=m
New Line.LINE626 Bus1=597 Bus2=627 phases=3 Linecode=2c_.04 Length=0.60161 Units=m
New Line.LINE627 Bus1=597 Bus2=628 phases=3 Linecode=2c_.04 Length=0.60161 Units=m
New Line.LINE643 Bus1=613 Bus2=644 phases=3 Linecode=2c_.04 Length=0.24136 Units=m
New Line.LINE644 Bus1=613 Bus2=645 phases=3 Linecode=2c_.04 Length=0.24136 Units=m
New Line.LINE647 Bus1=617 Bus2=648 phases=3 Linecode=4c_.12 Length=0.75407 Units=m
New Line.LINE648 Bus1=617 Bus2=649 phases=3 Linecode=4c_.12 Length=0.75407 Units=m
New Line.LINE653 Bus1=624 Bus2=654 phases=3 Linecode=4c_.12 Length=5.561 Units=m
New Line.LINE654 Bus1=624 Bus2=655 phases=3 Linecode=4c_.12 Length=5.561 Units=m
New Line.LINE655 Bus1=624 Bus2=656 phases=3 Linecode=4c_.12 Length=5.561 Units=m
New Line.LINE656 Bus1=627 Bus2=657 phases=3 Linecode=2c_.04 Length=0.25912 Units=m
New Line.LINE657 Bus1=627 Bus2=658 phases=3 Linecode=2c_.04 Length=0.25912 Units=m
New Line.LINE672 Bus1=644 Bus2=673 phases=3 Linecode=2c_.04 Length=0.49397 Units=m
New Line.LINE673 Bus1=644 Bus2=674 phases=3 Linecode=2c_.04 Length=0.49397 Units=m
New Line.LINE676 Bus1=648 Bus2=677 phases=3 Linecode=4c_.12 Length=0.51088 Units=m
New Line.LINE677 Bus1=648 Bus2=678 phases=3 Linecode=4c_.12 Length=0.51088 Units=m
New Line.LINE683 Bus1=654 Bus2=684 phases=3 Linecode=2c_.04 Length=6.5306 Units=m
New Line.LINE684 Bus1=654 Bus2=685 phases=3 Linecode=4c_.12 Length=2.1281 Units=m
New Line.LINE685 Bus1=654 Bus2=686 phases=3 Linecode=4c_.12 Length=2.1281 Units=m
New Line.LINE686 Bus1=657 Bus2=687 phases=3 Linecode=2c_.04 Length=0.20927 Units=m
New Line.LINE687 Bus1=657 Bus2=688 phases=3 Linecode=2c_.04 Length=0.20927 Units=m
New Line.LINE689 Bus1=660 Bus2=690 phases=3 Linecode=2c_.007 Length=0.13041 Units=m
New Line.LINE690 Bus1=660 Bus2=691 phases=3 Linecode=4c_.12 Length=1.4345 Units=m
New Line.LINE703 Bus1=673 Bus2=704 phases=3 Linecode=2c_.04 Length=7.0938 Units=m
New Line.LINE704 Bus1=673 Bus2=705 phases=3 Linecode=2c_.04 Length=7.0938 Units=m
New Line.LINE707 Bus1=677 Bus2=708 phases=3 Linecode=4c_.12 Length=0.94772 Units=m
New Line.LINE708 Bus1=677 Bus2=709 phases=3 Linecode=4c_.12 Length=0.94772 Units=m
New Line.LINE713 Bus1=684 Bus2=714 phases=3 Linecode=2c_.04 Length=3.832 Units=m
New Line.LINE714 Bus1=684 Bus2=715 phases=3 Linecode=2c_.04 Length=0.73921 Units=m
New Line.LINE715 Bus1=684 Bus2=716 phases=3 Linecode=2c_.04 Length=0.73921 Units=m
New Line.LINE716 Bus1=687 Bus2=717 phases=3 Linecode=2c_.04 Length=0.16808 Units=m
New Line.LINE717 Bus1=687 Bus2=718 phases=3 Linecode=2c_.04 Length=0.16808 Units=m
New Line.LINE720 Bus1=691 Bus2=721 phases=3 Linecode=2c_.04 Length=8.4976 Units=m
New Line.LINE733 Bus1=704 Bus2=734 phases=3 Linecode=2c_.04 Length=0.27857 Units=m
New Line.LINE734 Bus1=704 Bus2=735 phases=3 Linecode=2c_.04 Length=0.27857 Units=m
New Line.LINE741 Bus1=713 Bus2=742 phases=3 Linecode=4c_.12 Length=4.8234 Units=m
New Line.LINE742 Bus1=715 Bus2=743 phases=3 Linecode=2c_.04 Length=0.15 Units=m
New Line.LINE743 Bus1=715 Bus2=744 phases=3 Linecode=2c_.04 Length=0.15 Units=m
New Line.LINE744 Bus1=717 Bus2=745 phases=3 Linecode=2c_.04 Length=1.4743 Units=m
New Line.LINE745 Bus1=717 Bus2=746 phases=3 Linecode=2c_.04 Length=1.4743 Units=m
New Line.LINE752 Bus1=724 Bus2=753 phases=3 Linecode=2c_.04 Length=5.8887 Units=m
New Line.LINE753 Bus1=724 Bus2=754 phases=3 Linecode=2c_.04 Length=6.776 Units=m
New Line.LINE754 Bus1=724 Bus2=755 phases=3 Linecode=2c_.04 Length=6.776 Units=m
New Line.LINE763 Bus1=734 Bus2=764 phases=3 Linecode=2c_.04 Length=0.21727 Units=m
New Line.LINE764 Bus1=734 Bus2=765 phases=3 Linecode=2c_.04 Length=0.21727 Units=m
New Line.LINE771 Bus1=742 Bus2=772 phases=3 Linecode=25_PSC Length=9.14 Units=m
New Line.LINE772 Bus1=742 Bus2=773 phases=3 Linecode=4c_.12 Length=11.3679 Units=m
New Line.LINE773 Bus1=743 Bus2=774 phases=3 Linecode=2c_.04 Length=0.12269 Units=m
New Line.LINE774 Bus1=743 Bus2=775 phases=3 Linecode=2c_.04 Length=0.12269 Units=m
New Line.LINE775 Bus1=745 Bus2=776 phases=3 Linecode=2c_.04 Length=5.8392 Units=m
New Line.LINE776 Bus1=745 Bus2=777 phases=3 Linecode=2c_.04 Length=5.8392 Units=m
New Line.LINE777 Bus1=745 Bus2=778 phases=3 Linecode=2c_.04 Length=5.9753 Units=m
New Line.LINE784 Bus1=753 Bus2=785 phases=3 Linecode=2c_.04 Length=4.3663 Units=m
New Line.LINE785 Bus1=753 Bus2=786 phases=3 Linecode=2c_.04 Length=4.3663 Units=m
New Line.LINE794 Bus1=764 Bus2=795 phases=3 Linecode=2c_.04 Length=0.17119 Units=m
New Line.LINE795 Bus1=764 Bus2=796 phases=3 Linecode=2c_.04 Length=0.17119 Units=m
New Line.LINE798 Bus1=768 Bus2=799 phases=3 Linecode=35_SAC_XC Length=5.1489 Units=m
New Line.LINE806 Bus1=774 Bus2=807 phases=3 Linecode=2c_.04 Length=0.12847 Units=m
New Line.LINE807 Bus1=774 Bus2=808 phases=3 Linecode=2c_.04 Length=0.12847 Units=m
New Line.LINE808 Bus1=778 Bus2=809 phases=3 Linecode=2c_.04 Length=6.8782 Units=m
New Line.LINE809 Bus1=778 Bus2=810 phases=3 Linecode=2c_.04 Length=6.8782 Units=m
New Line.LINE824 Bus1=795 Bus2=825 phases=3 Linecode=2c_.04 Length=0.17952 Units=m
New Line.LINE825 Bus1=795 Bus2=826 phases=3 Linecode=2c_.04 Length=0.17952 Units=m
New Line.LINE835 Bus1=807 Bus2=836 phases=3 Linecode=2c_.04 Length=0.11526 Units=m
New Line.LINE836 Bus1=807 Bus2=837 phases=3 Linecode=2c_.04 Length=0.11526 Units=m
New Line.LINE851 Bus1=825 Bus2=852 phases=3 Linecode=2c_.04 Length=0.17901 Units=m
New Line.LINE852 Bus1=825 Bus2=853 phases=3 Linecode=2c_.04 Length=0.17901 Units=m
New Line.LINE861 Bus1=835 Bus2=862 phases=3 Linecode=2c_.04 Length=6.6184 Units=m
New Line.LINE863 Bus1=836 Bus2=864 phases=3 Linecode=2c_.04 Length=8.0223 Units=m
New Line.LINE864 Bus1=836 Bus2=865 phases=3 Linecode=2c_.04 Length=8.0223 Units=m
New Line.LINE876 Bus1=852 Bus2=877 phases=3 Linecode=2c_.04 Length=0.18991 Units=m
New Line.LINE877 Bus1=852 Bus2=878 phases=3 Linecode=2c_.04 Length=0.18991 Units=m
New Line.LINE886 Bus1=862 Bus2=887 phases=3 Linecode=2c_.04 Length=5.3031 Units=m
New Line.LINE889 Bus1=864 Bus2=890 phases=3 Linecode=2c_.04 Length=0.13424 Units=m
New Line.LINE890 Bus1=864 Bus2=891 phases=3 Linecode=2c_.04 Length=0.13424 Units=m
New Line.LINE892 Bus1=866 Bus2=893 phases=3 Linecode=4c_.12 Length=2.5968 Units=m
New Line.LINE902 Bus1=877 Bus2=903 phases=3 Linecode=2c_.04 Length=0.32189 Units=m
New Line.LINE903 Bus1=877 Bus2=904 phases=3 Linecode=2c_.04 Length=0.32189 Units=m
New Line.LINE913 Bus1=889 Bus2=914 phases=3 Linecode=2c_.04 Length=7.383 Units=m
New Line.LINE915 Bus1=890 Bus2=916 phases=3 Linecode=2c_.04 Length=0.13506 Units=m
New Line.LINE916 Bus1=890 Bus2=917 phases=3 Linecode=2c_.04 Length=0.13506 Units=m
New Line.LINE918 Bus1=893 Bus2=919 phases=3 Linecode=2c_.04 Length=5.2271 Units=m
New Line.LINE929 Bus1=903 Bus2=930 phases=3 Linecode=2c_.04 Length=1.7277 Units=m
New Line.LINE930 Bus1=903 Bus2=931 phases=3 Linecode=2c_.04 Length=1.7277 Units=m
New Line.LINE943 Bus1=916 Bus2=944 phases=3 Linecode=2c_.04 Length=0.13384 Units=m
New Line.LINE944 Bus1=916 Bus2=945 phases=3 Linecode=2c_.04 Length=0.13384 Units=m
New Line.LINE970 Bus1=943 Bus2=971 phases=3 Linecode=4c_.12 Length=11.2482 Units=m
New Line.LINE971 Bus1=944 Bus2=972 phases=3 Linecode=2c_.04 Length=0.13445 Units=m
New Line.LINE972 Bus1=944 Bus2=973 phases=3 Linecode=2c_.04 Length=0.13445 Units=m
New Line.LINE979 Bus1=953 Bus2=980 phases=3 Linecode=2c_.04 Length=6.0623 Units=m
New Line.LINE996 Bus1=972 Bus2=997 phases=3 Linecode=2c_.04 Length=0.1342 Units=m
New Line.LINE997 Bus1=972 Bus2=998 phases=3 Linecode=2c_.04 Length=0.1342 Units=m
New Line.LINE1020 Bus1=997 Bus2=1021 phases=3 Linecode=2c_.04 Length=0.13462 Units=m
New Line.LINE1021 Bus1=997 Bus2=1022 phases=3 Linecode=2c_.04 Length=0.13462 Units=m
New Line.LINE1024 Bus1=1002 Bus2=1025 phases=3 Linecode=2c_.04 Length=4.2433 Units=m
New Line.LINE1039 Bus1=1016 Bus2=1040 phases=3 Linecode=25_PSC Length=2.8833 Units=m
New Line.LINE1040 Bus1=1016 Bus2=1041 phases=3 Linecode=25_PSC Length=2.8833 Units=m
New Line.LINE1045 Bus1=1021 Bus2=1046 phases=3 Linecode=2c_.04 Length=0.13384 Units=m
New Line.LINE1046 Bus1=1021 Bus2=1047 phases=3 Linecode=2c_.04 Length=0.13384 Units=m
New Line.LINE1048 Bus1=1023 Bus2=1049 phases=3 Linecode=2c_.04 Length=5.7298 Units=m
New Line.LINE1061 Bus1=1036 Bus2=1062 phases=3 Linecode=2c_.04 Length=3.2822 Units=m
New Line.LINE1070 Bus1=1046 Bus2=1071 phases=3 Linecode=2c_.04 Length=0.13396 Units=m
New Line.LINE1071 Bus1=1046 Bus2=1072 phases=3 Linecode=2c_.04 Length=0.13396 Units=m
New Line.LINE1074 Bus1=1050 Bus2=1075 phases=3 Linecode=2c_.04 Length=5.3231 Units=m
New Line.LINE1093 Bus1=1069 Bus2=1094 phases=3 Linecode=2c_.04 Length=4.6484 Units=m
New Line.LINE1094 Bus1=1069 Bus2=1095 phases=3 Linecode=2c_.04 Length=4.6484 Units=m
New Line.LINE1097 Bus1=1071 Bus2=1098 phases=3 Linecode=2c_.04 Length=0.26656 Units=m
New Line.LINE1104 Bus1=1080 Bus2=1105 phases=3 Linecode=2c_.04 Length=7.2047 Units=m
New Line.LINE1105 Bus1=1080 Bus2=1106 phases=3 Linecode=2c_.04 Length=7.2047 Units=m
New Line.LINE1145 Bus1=1125 Bus2=1146 phases=3 Linecode=2c_.04 Length=5.5235 Units=m
New Line.LINE1165 Bus1=1144 Bus2=1166 phases=3 Linecode=2c_.04 Length=5.406 Units=m
New Line.LINE1197 Bus1=1179 Bus2=1198 phases=3 Linecode=3c_240_SAC_XC Length=1.6709 Units=m
New Line.LINE1198 Bus1=1179 Bus2=1199 phases=3 Linecode=3c_300_SAC_ASN Length=0.56922 Units=m
New Line.LINE1199 Bus1=1179 Bus2=1200 phases=3 Linecode=3c_240_SAC_XC Length=1.6709 Units=m
New Line.LINE1200 Bus1=1179 Bus2=1201 phases=3 Linecode=3c_300_SAC_ASN Length=0.56922 Units=m
New Line.LINE1201 Bus1=1180 Bus2=1202 phases=3 Linecode=25_PSC Length=5.1711 Units=m
New Line.LINE1202 Bus1=1180 Bus2=1203 phases=3 Linecode=25_PSC Length=5.1711 Units=m
New Line.LINE1218 Bus1=1195 Bus2=1219 phases=3 Linecode=25_SAC_XC Length=0.2619 Units=m
New Line.LINE1221 Bus1=1198 Bus2=1222 phases=3 Linecode=3c_240_SAC_XC Length=1.1713 Units=m
New Line.LINE1222 Bus1=1198 Bus2=1223 phases=3 Linecode=3c_240_SAC_XC Length=1.1713 Units=m
New Line.LINE1223 Bus1=1199 Bus2=1224 phases=3 Linecode=3c_300_SAC_ASN Length=0.43518 Units=m
New Line.LINE1224 Bus1=1199 Bus2=1225 phases=3 Linecode=3c_300_SAC_ASN Length=0.43518 Units=m
New Line.LINE1244 Bus1=1222 Bus2=1245 phases=3 Linecode=3c_240_SAC_XC Length=0.15728 Units=m
New Line.LINE1245 Bus1=1222 Bus2=1246 phases=3 Linecode=3c_240_SAC_XC Length=0.15728 Units=m
New Line.LINE1246 Bus1=1224 Bus2=1247 phases=3 Linecode=3c_300_SAC_ASN Length=0.69604 Units=m
New Line.LINE1247 Bus1=1224 Bus2=1248 phases=3 Linecode=3c_300_SAC_ASN Length=0.69604 Units=m
New Line.LINE1267 Bus1=1245 Bus2=1268 phases=3 Linecode=3c_240_SAC_XC Length=0.25715 Units=m
New Line.LINE1268 Bus1=1245 Bus2=1269 phases=3 Linecode=3c_240_SAC_XC Length=0.25715 Units=m
New Line.LINE1269 Bus1=1247 Bus2=1270 phases=3 Linecode=3c_300_SAC_ASN Length=1.3428 Units=m
New Line.LINE1270 Bus1=1247 Bus2=1271 phases=3 Linecode=3c_300_SAC_ASN Length=1.3428 Units=m
New Line.LINE1274 Bus1=1251 Bus2=1275 phases=3 Linecode=2c_.04 Length=5.5889 Units=m
New Line.LINE1280 Bus1=1256 Bus2=1281 phases=3 Linecode=4c_.12 Length=1.4779 Units=m
New Line.LINE1292 Bus1=1268 Bus2=1293 phases=3 Linecode=3c_240_SAC_XC Length=0.22945 Units=m
New Line.LINE1293 Bus1=1268 Bus2=1294 phases=3 Linecode=3c_240_SAC_XC Length=0.22945 Units=m
New Line.LINE1294 Bus1=1270 Bus2=1295 phases=3 Linecode=3c_300_SAC_ASN Length=0.23664 Units=m
New Line.LINE1295 Bus1=1270 Bus2=1296 phases=3 Linecode=3c_300_SAC_ASN Length=0.23664 Units=m
New Line.LINE1304 Bus1=1281 Bus2=1305 phases=3 Linecode=2c_.04 Length=27.336 Units=m