New Line.LINE176_1 Bus1=176_1 Bus2=176_2 phases=3 Linecode=3c_300_SAC_XC Length=1.0189 Units=m
New Line.LINE176_2 Bus1=176_2 Bus2=176_3 phases=3 Linecode=3c_300_SAC_XC Length=0.1191 Units=m
New Line.LINE176_3 Bus1=176_3 Bus2=176_4 phases=3 Linecode=3c_300_SAC_XC Length=0.11804 Units=m
New Line.LINE176_4 Bus1=176_4 Bus2=176_5 phases=3 Linecode=3c_300_SAC_XC Length=0.11853 Units=m
New Line.LINE176_5 Bus1=176_5 Bus2=176_6 phases=3 Linecode=3c_300_SAC_XC Length=0.11868 Units=m
New Line.LINE176_6 Bus1=176_6 Bus2=176_7 phases=3 Linecode=3c_300_SAC_XC Length=0.11904 Units=m
New Line.LINE176_7 Bus1=176_7 Bus2=176_8 phases=3 Linecode=3c_300_SAC_XC Length=0.11819 Units=m
New Line.LINE176_8 Bus1=176_8 Bus2=176_9 phases=3 Linecode=3c_300_SAC_XC Length=0.11881 Units=m
New Line.LINE176_9 Bus1=176_9 Bus2=176_10 phases=3 Linecode=3c_300_SAC_XC Length=0.1186 Units=m
New Line.LINE176_10 Bus1=176_10 Bus2=176_11 phases=3 Linecode=3c_300_SAC_XC Length=2.6857 Units=m
New Line.LINE176_11 Bus1=176_11 Bus2=176_12 phases=3 Linecode=3c_300_SAC_XC Length=0.60621 Units=m
New Line.LINE176_12 Bus1=176_12 Bus2=176_13 phases=3 Linecode=3c_300_SAC_XC Length=2.5521 Units=m
New Line.LINE176_13 Bus1=176_13 Bus2=176_14 phases=3 Linecode=3c_300_SAC_XC Length=0.052354 Units=m
New Line.LINE176_14 Bus1=176_14 Bus2=176_15 phases=3 Linecode=3c_300_SAC_XC Length=0.051855 Units=m
New Line.LINE176_15 Bus1=176_15 Bus2=176_16 phases=3 Linecode=3c_300_SAC_XC Length=0.051856 Units=m
New Line.LINE176_16 Bus1=176_16 Bus2=176_17 phases=3 Linecode=3c_300_SAC_XC Length=0.052354 Units=m
New Line.LINE176_17 Bus1=176_17 Bus2=176_18 phases=3 Linecode=3c_300_SAC_XC Length=0.051245 Units=m
New Line.LINE176_18 Bus1=176_18 Bus2=176_19 phases=3 Linecode=3c_300_SAC_XC Length=0.052345 Units=m
New Line.LINE176_19 Bus1=176_19 Bus2=176_20 phases=3 Linecode=3c_300_SAC_XC Length=0.052154 Units=m
New Line.LINE176_20 Bus1=176_20 Bus2=176_21 phases=3 Linecode=3c_300_SAC_XC Length=0.051924 Units=m
New Line.LINE176_21 Bus1=176_21 Bus2=176_22 phases=3 Linecode=3c_300_SAC_XC Length=3.2501 Units=m
New Line.LINE176_22 Bus1=176_22 Bus2=176_23 phases=3 Linecode=3c_300_SAC_XC Length=0.13728 Units=m
New Line.LINE176_23 Bus1=176_23 Bus2=176_24 phases=3 Linecode=3c_300_SAC_XC Length=0.13823 Units=m
New Line.LINE176_24 Bus1=176_24 Bus2=176_25 phases=3 Linecode=3c_300_SAC_XC Length=0.13805 Units=m
New Line.LINE176_25 Bus1=176_25 Bus2=176_26 phases=3 Linecode=3c_300_SAC_XC Length=0.13914 Units=m
New Line.LINE176_26 Bus1=176_26 Bus2=176_27 phases=3 Linecode=3c_300_SAC_XC Length=0.13831 Units=m
New Line.LINE176_27 Bus1=176_27 Bus2=176_28 phases=3 Linecode=3c_300_SAC_XC Length=0.13841 Units=m
New Line.LINE176_28 Bus1=176_28 Bus2=176_29 phases=3 Linecode=3c_300_SAC_XC Length=1.2857 Units=m
New Line.LINE176_29 Bus1=176_29 Bus2=176_30 phases=3 Linecode=4c_.25 Length=1.9492 Units=m
New Line.LINE176_30 Bus1=176_29 Bus2=176_31 phases=3 Linecode=4c_.25 Length=2.5219 Units=m
New Line.LINE176_31 Bus1=176_30 Bus2=176_32 phases=3 Linecode=4c_.25 Length=0.18041 Units=m
New Line.LINE176_32 Bus1=176_32 Bus2=176_33 phases=3 Linecode=4c_.25 Length=0.18983 Units=m
New Line.LINE176_33 Bus1=176_33 Bus2=176_34 phases=3 Linecode=4c_.25 Length=0.75305 Units=m
New Line.LINE176_34 Bus1=176_34 Bus2=176_35 phases=3 Linecode=4c_.25 Length=18.8981 Units=m
New Line.LINE176_35 Bus1=176_35 Bus2=176_36 phases=3 Linecode=4c_.25 Length=1.0647 Units=m
New Line.LINE176_36 Bus1=176_36 Bus2=176_37 phases=3 Linecode=4c_.25 Length=0.19038 Units=m
New Line.LINE176_37 Bus1=176_37 Bus2=176_38 phases=3 Linecode=4c_.25 Length=0.17773 Units=m
New Line.LINE176_38 Bus1=176_38 Bus2=176_39 phases=3 Linecode=4c_.25 Length=0.397 Units=m
New Line.LINE176_39 Bus1=176_39 Bus2=176_40 phases=3 Linecode=4c_.25 Length=3.0671 Units=m
New Line.LINE176_40 Bus1=176_40 Bus2=176_41 phases=3 Linecode=4c_.25 Length=3.0813 Units=m
New Line.LINE176_41 Bus1=176_41 Bus2=176_42 phases=3 Linecode=4c_.25 Length=0.64355 Units=m
New Line.LINE176_42 Bus1=176_42 Bus2=176_43 phases=3 Linecode=4c_.25 Length=0.16703 Units=m
New Line.LINE176_43 Bus1=176_43 Bus2=176_44 phases=3 Linecode=4c_.25 Length=0.090603 Units=m
New Line.LINE176_44 Bus1=176_44 Bus2=176_45 phases=3 Linecode=4c_.25 Length=0.11322 Units=m
New Line.LINE176_45 Bus1=176_45 Bus2=176_46 phases=3 Linecode=4c_.25 Length=0.093941 Units=m
New Line.LINE176_46 Bus1=176_46 Bus2=176_47 phases=3 Linecode=4c_.25 Length=0.176 Units=m
New Line.LINE176_47 Bus1=176_47 Bus2=176_48 phases=3 Linecode=4c_.25 Length=0.159 Units=m
New Line.LINE176_48 Bus1=176_48 Bus2=176_49 phases=3 Linecode=4c_.25 Length=0.12093 Units=m
New Line.LINE176_49 Bus1=176_49 Bus2=176_50 phases=3 Linecode=4c_.25 Length=0.067054 Units=m
New Line.LINE176_50 Bus1=176_50 Bus2=176_51 phases=3 Linecode=4c_.25 Length=0.099744 Units=m
New Line.LINE176_51 Bus1=176_51 Bus2=176_52 phases=3 Linecode=4c_.25 Length=0.081025 Units=m
New Line.LINE176_52 Bus1=176_52 Bus2=176_53 phases=3 Linecode=4c_.25 Length=0.095268 Units=m
New Line.LINE176_53 Bus1=176_53 Bus2=176_54 phases=3 Linecode=4c_.25 Length=0.11129 Units=m
New Line.LINE176_54 Bus1=176_54 Bus2=176_55 phases=3 Linecode=4c_.25 Length=0.31729 Units=m
New Line.LINE176_55 Bus1=176_55 Bus2=176_56 phases=3 Linecode=4c_.25 Length=1.4289 Units=m
New Line.LINE176_56 Bus1=176_56 Bus2=176_57 phases=3 Linecode=4c_.25 Length=0.33743 Units=m
New Line.LINE176_57 Bus1=176_57 Bus2=176_58 phases=3 Linecode=4c_.25 Length=1.4788 Units=m
New Line.LINE176_58 Bus1=176_58 Bus2=176_59 phases=3 Linecode=4c_.25 Length=0.98021 Units=m
New Line.LINE176_59 Bus1=176_59 Bus2=176_60 phases=3 Linecode=4c_.2 Length=0.0861 Units=m
New Line.LINE176_60 Bus1=176_59 Bus2=176_61 phases=3 Linecode=4c_.3 Length=1.7201 Units=m
New Line.LINE176_61 Bus1=176_59 Bus2=176_62 phases=3 Linecode=4c_.3 Length=1.7201 Units=m
New Line.LINE176_62 Bus1=176_60 Bus2=176_63 phases=3 Linecode=4c_.2 Length=0.066212 Units=m
New Line.LINE176_63 Bus1=176_61 Bus2=176_64 phases=3 Linecode=4c_.3 Length=0.40106 Units=m
New Line.LINE176_64 Bus1=176_61 Bus2=176_65 phases=3 Linecode=4c_.3 Length=0.40106 Units=m
New Line.LINE176_65 Bus1=176_63 Bus2=176_66 phases=3 Linecode=4c_.2 Length=0.060407 Units=m
New Line.LINE176_66 Bus1=176_64 Bus2=176_67 phases=3 Linecode=4c_.3 Length=0.69797 Units=m
New Line.LINE176_67 Bus1=176_64 Bus2=176_68 phases=3 Linecode=4c_.3 Length=0.69797 Units=m
New Line.LINE176_68 Bus1=176_66 Bus2=176_69 phases=3 Linecode=4c_.2 Length=0.066507 Units=m
New Line.LINE176_69 Bus1=176_67 Bus2=176_70 phases=3 Linecode=4c_.3 Length=2.5268 Units=m
New Line.LINE176_70 Bus1=176_67 Bus2=176_71 phases=3 Linecode=4c_.3 Length=2.5268 Units=m
New Line.LINE176_71 Bus1=176_69 Bus2=176_72 phases=3 Linecode=4c_.2 Length=0.076612 Units=m
New Line.LINE176_72 Bus1=176_70 Bus2=176_73 phases=3 Linecode=4c_.3 Length=2.8369 Units=m
New Line.LINE176_73 Bus1=176_70 Bus2=176_74 phases=3 Linecode=4c_.3 Length=2.8369 Units=m
New Line.LINE176_74 Bus1=176_72 Bus2=176_75 phases=3 Linecode=4c_.2 Length=0.046573 Units=m
New Line.LINE176_75 Bus1=176_73 Bus2=176_76 phases=3 Linecode=4c_.3 Length=4.779 Units=m
New Line.LINE176_76 Bus1=176_73 Bus2=176_77 phases=3 Linecode=4c_.3 Length=4.779 Units=m
New Line.LINE176_77 Bus1=176_75 Bus2=176_78 phases=3 Linecode=4c_.2 Length=0.053666 Units=m
New Line.LINE176_78 Bus1=176_76 Bus2=176_79 phases=3 Linecode=4c_.3 Length=6.1817 Units=m
New Line.LINE176_79 Bus1=176_76 Bus2=176_80 phases=3 Linecode=4c_.3 Length=6.1817 Units=m
New Line.LINE176_80 Bus1=176_78 Bus2=176_81 phases=3 Linecode=4c_.2 Length=0.040816 Units=m
New Line.LINE176_81 Bus1=176_79 Bus2=176_82 phases=3 Linecode=4c_.3 Length=7.3749 Units=m
New Line.LINE176_82 Bus1=176_79 Bus2=176_83 phases=3 Linecode=4c_.3 Length=7.3749 Units=m
New Line.LINE176_83 Bus1=176_81 Bus2=176_84 phases=3 Linecode=4c_.2 Length=0.20834 Units=m
New Line.LINE176_84 Bus1=176_82 Bus2=176_85 phases=3 Linecode=4c_.3 Length=6.2018 Units=m
New Line.LINE176_85 Bus1=176_82 Bus2=176_86 phases=3 Linecode=4c_.3 Length=6.2018 Units=m
New Line.LINE176_86 Bus1=176_84 Bus2=176_87 phases=3 Linecode=4c_.2 Length=0.10308 Units=m
New Line.LINE176_87 Bus1=176_85 Bus2=176_88 phases=3 Linecode=4c_.3 Length=7.7846 Units=m
New Line.LINE176_88 Bus1=176_85 Bus2=176_89 phases=3 Linecode=4c_.3 Length=7.7846 Units=m
New Line.LINE176_89 Bus1=176_87 Bus2=176_90 phases=3 Linecode=4c_.2 Length=4.3471 Units=m
New Line.LINE176_90 Bus1=176_88 Bus2=176_91 phases=3 Linecode=4c_.3 Length=15.9976 Units=m
New Line.LINE176_91 Bus1=176_88 Bus2=176_92 phases=3 Linecode=4c_.3 Length=15.9976 Units=m
New Line.LINE176_92 Bus1=176_90 Bus2=176_93 phases=3 Linecode=4c_.2 Length=0.56484 Units=m
New Line.LINE176_93 Bus1=176_91 Bus2=176_94 phases=3 Linecode=4c_.3 Length=12.5019 Units=m
New Line.LINE176_94 Bus1=176_91 Bus2=176_95 phases=3 Linecode=4c_.3 Length=12.5019 Units=m
New Line.LINE176_95 Bus1=176_93 Bus2=176_96 phases=3 Linecode=4c_.2 Length=0.42623 Units=m
New Line.LINE176_96 Bus1=176_94 Bus2=176_97 phases=3 Linecode=4c_.3 Length=0.60844 Units=m
New Line.LINE176_97 Bus1=176_94 Bus2=176_98 phases=3 Linecode=4c_.3 Length=0.60844 Units=m
New Line.LINE176_98 Bus1=176_96 Bus2=176_99 phases=3 Linecode=4c_.2 Length=0.27546 Units=m
New Line.LINE176_99 Bus1=176_97 Bus2=176_100 phases=3 Linecode=4c_.3 Length=0.68412 Units=m
New Line.LINE176_100 Bus1=176_97 Bus2=176_101 phases=3 Linecode=4c_.3 Length=0.68412 Units=m
New Line.LINE176_101 Bus1=176_99 Bus2=176_102 phases=3 Linecode=4c_.2 Length=1.0304 Units=m
New Line.LINE176_102 Bus1=176_100 Bus2=176_103 phases=3 Linecode=4c_.3 Length=1.0432 Units=m
New Line.LINE176_103 Bus1=176_100 Bus2=176_104 phases=3 Linecode=4c_.3 Length=1.0432 Units=m
New Line.LINE176_104 Bus1=176_102 Bus2=176_105 phases=3 Linecode=4c_.12 Length=1.939 Units=m
New Line.LINE176_105 Bus1=176_102 Bus2=176_106 phases=3 Linecode=4c_.12 Length=1.7845 Units=m
New Line.LINE176_106 Bus1=176_102 Bus2=176_107 phases=3 Linecode=4c_.12 Length=1.7845 Units=m
New Line.LINE176_107 Bus1=176_103 Bus2=176_108 phases=3 Linecode=4c_.3 Length=0.87118 Units=m
New Line.LINE176_108 Bus1=176_103 Bus2=176_109 phases=3 Linecode=4c_.3 Length=0.87118 Units=m
New Line.LINE176_109 Bus1=176_105 Bus2=176_110 phases=3 Linecode=2c_.04 Length=0.72993 Units=m
New Line.LINE176_110 Bus1=176_105 Bus2=176_111 phases=3 Linecode=4c_.12 Length=1.6398 Units=m
New Line.LINE176_111 Bus1=176_106 Bus2=176_112 phases=3 Linecode=4c_.12 Length=2.0756 Units=m
New Line.LINE176_112 Bus1=176_106 Bus2=176_113 phases=3 Linecode=4c_.12 Length=2.0756 Units=m
New Line.LINE176_113 Bus1=176_108 Bus2=176_114 phases=3 Linecode=4c_.3 Length=1.1352 Units=m
New Line.LINE176_114 Bus1=176_108 Bus2=176_115 phases=3 Linecode=4c_.3 Length=1.1352 Units=m
New Line.LINE176_115 Bus1=176_110 Bus2=176_116 phases=3 Linecode=2c_.04 Length=0.22383 Units=m
New Line.LINE176_116 Bus1=176_111 Bus2=176_117 phases=3 Linecode=2c_.04 Length=6.8256 Units=m
New Line.LINE176_117 Bus1=176_111 Bus2=176_118 phases=3 Linecode=4c_.12 Length=1.5644 Units=m
New Line.LINE176_118 Bus1=176_112 Bus2=176_119 phases=3 Linecode=4c_.12 Length=0.69895 Units=m
New Line.LINE176_119 Bus1=176_112 Bus2=176_120 phases=3 Linecode=4c_.12 Length=0.69895 Units=m
New Line.LINE176_120 Bus1=176_114 Bus2=176_121 phases=3 Linecode=4c_.3 Length=0.79438 Units=m
New Line.LINE176_121 Bus1=176_114 Bus2=176_122 phases=3 Linecode=4c_.3 Length=0.79438 Units=m
New Line.LINE176_122 Bus1=176_116 Bus2=176_123 phases=3 Linecode=2c_.04 Length=0.15101 Units=m
New Line.LINE176_123 Bus1=176_117 Bus2=176_124 phases=3 Linecode=2c_.04 Length=4.4985 Units=m
New Line.LINE176_124 Bus1=176_117 Bus2=176_125 phases=3 Linecode=2c_.04 Length=0.83987 Units=m
New Line.LINE176_125 Bus1=176_118 Bus2=176_126 phases=3 Linecode=4c_.12 Length=0.59681 Units=m
New Line.LINE176_126 Bus1=176_119 Bus2=176_127 phases=3 Linecode=4c_.12 Length=0.3565 Units=m
New Line.LINE176_127 Bus1=176_119 Bus2=176_128 phases=3 Linecode=4c_.12 Length=0.3565 Units=m
New Line.LINE176_128 Bus1=176_121 Bus2=176_129 phases=3 Linecode=4c_.3 Length=1.0117 Units=m
New Line.LINE176_129 Bus1=176_121 Bus2=176_130 phases=3 Linecode=4c_.3 Length=1.0117 Units=m
New Line.LINE176_130 Bus1=176_123 Bus2=176_131 phases=3 Linecode=2c_.04 Length=0.15403 Units=m
New Line.LINE176_131 Bus1=176_125 Bus2=176_132 phases=3 Linecode=2c_.04 Length=0.10153 Units=m
New Line.LINE176_132 Bus1=176_126 Bus2=176_133 phases=3 Linecode=4c_.12 Length=1.0195 Units=m
New Line.LINE176_133 Bus1=176_127 Bus2=176_134 phases=3 Linecode=2c_.04 Length=8.8692 Units=m
New Line.LINE176_134 Bus1=176_127 Bus2=176_135 phases=3 Linecode=4c_.12 Length=0.26928 Units=m
New Line.LINE176_135 Bus1=176_127 Bus2=176_136 phases=3 Linecode=4c_.12 Length=0.26928 Units=m
New Line.LINE176_136 Bus1=176_129 Bus2=176_137 phases=3 Linecode=4c_.3 Length=0.76066 Units=m
New Line.LINE176_137 Bus1=176_129 Bus2=176_138 phases=3 Linecode=4c_.3 Length=0.76066 Units=m
New Line.LINE176_138 Bus1=176_131 Bus2=176_139 phases=3 Linecode=2c_.04 Length=0.18344 Units=m
New Line.LINE176_139 Bus1=176_132 Bus2=176_140 phases=3 Linecode=2c_.04 Length=0.074094 Units=m
New Line.LINE176_140 Bus1=176_133 Bus2=176_141 phases=3 Linecode=4c_.12 Length=2.29 Units=m
New Line.LINE176_141 Bus1=176_134 Bus2=176_142 phases=3 Linecode=2c_.04 Length=5.0849 Units=m
New Line.LINE176_142 Bus1=176_134 Bus2=176_143 phases=3 Linecode=2c_.04 Length=0.69125 Units=m
New Line.LINE176_143 Bus1=176_135 Bus2=176_144 phases=3 Linecode=4c_.12 Length=0.87341 Units=m
New Line.LINE176_144 Bus1=176_135 Bus2=176_145 phases=3 Linecode=4c_.12 Length=0.87341 Units=m
New Line.LINE176_145 Bus1=176_137 Bus2=176_146 phases=3 Linecode=4c_.3 Length=0.90927 Units=m
New Line.LINE176_146 Bus1=176_137 Bus2=176_147 phases=3 Linecode=4c_.3 Length=0.90927 Units=m
New Line.LINE176_147 Bus1=176_139 Bus2=176_148 phases=3 Linecode=2c_.04 Length=7.3102 Units=m
New Line.LINE176_148 Bus1=176_140 Bus2=176_149 phases=3 Linecode=2c_.04 Length=0.052345 Units=m
New Line.LINE176_149 Bus1=176_141 Bus2=176_150 phases=3 Linecode=4c_.12 Length=2.1911 Units=m
New Line.LINE176_150 Bus1=176_143 Bus2=176_151 phases=3 Linecode=2c_.04 Length=0.13731 Units=m
New Line.LINE176_151 Bus1=176_144 Bus2=176_152 phases=3 Linecode=4c_.12 Length=1.6002 Units=m
New Line.LINE176_152 Bus1=176_144 Bus2=176_153 phases=3 Linecode=4c_.12 Length=1.6002 Units=m
New Line.LINE176_153 Bus1=176_146 Bus2=176_154 phases=3 Linecode=4c_.3 Length=0.88325 Units=m
New Line.LINE176_154 Bus1=176_146 Bus2=176_155 phases=3 Linecode=4c_.3 Length=0.88325 Units=m
New Line.LINE176_155 Bus1=176_148 Bus2=176_156 phases=3 Linecode=2c_.04 Length=2.768 Units=m
New Line.LINE176_156 Bus1=176_149 Bus2=176_157 phases=3 Linecode=2c_.04 Length=0.062369 Units=m
New Line.LINE176_157 Bus1=176_150 Bus2=176_158 phases=3 Linecode=4c_.12 Length=3.1665 Units=m
New Line.LINE176_158 Bus1=176_151 Bus2=176_159 phases=3 Linecode=2c_.04 Length=0.12572 Units=m
New Line.LINE176_159 Bus1=176_152 Bus2=176_160 phases=3 Linecode=4c_.12 Length=0.77018 Units=m
New Line.LINE176_160 Bus1=176_152 Bus2=176_161 phases=3 Linecode=4c_.12 Length=0.77018 Units=m
New Line.LINE176_161 Bus1=176_154 Bus2=176_162 phases=3 Linecode=4c_.3 Length=1.0765 Units=m
New Line.LINE176_162 Bus1=176_154 Bus2=176_163 phases=3 Linecode=4c_.3 Length=1.0765 Units=m
New Line.LINE176_163 Bus1=176_156 Bus2=176_164 phases=3 Linecode=2c_.04 Length=8.2979 Units=m
New Line.LINE176_164 Bus1=176_157 Bus2=176_165 phases=3 Linecode=2c_.04 Length=0.066242 Units=m
New Line.LINE176_165 Bus1=176_158 Bus2=176_166 phases=3 Linecode=4c_.12 Length=5.3751 Units=m
New Line.LINE176_166 Bus1=176_159 Bus2=176_167 phases=3 Linecode=2c_.04 Length=0.12248 Units=m
New Line.LINE176_167 Bus1=176_160 Bus2=176_168 phases=3 Linecode=4c_.12 Length=1.2125 Units=m
New Line.LINE176_168 Bus1=176_160 Bus2=176_169 phases=3 Linecode=4c_.12 Length=1.2125 Units=m
New Line.LINE176_169 Bus1=176_162 Bus2=176_170 phases=3 Linecode=4c_.3 Length=0.93304 Units=m
New Line.LINE176_170 Bus1=176_162 Bus2=176_171 phases=3 Linecode=4c_.3 Length=0.93304 Units=m
New Line.LINE176_171 Bus1=176_164 Bus2=176_172 phases=3 Linecode=2c_.04 Length=0.64283 Units=m
New Line.LINE176_172 Bus1=176_165 Bus2=176_173 phases=3 Linecode=2c_.04 Length=0.053451 Units=m
New Line.LINE176_173 Bus1=176_166 Bus2=176_174 phases=3 Linecode=4c_.12 Length=1.9826 Units=m
New Line.LINE176_174 Bus1=176_167 Bus2=176_175 phases=3 Linecode=2c_.04 Length=0.13437 Units=m
New Line.LINE176_175 Bus1=176_168 Bus2=176_176 phases=3 Linecode=4c_.12 Length=1.2768 Units=m
New Line.LINE176_176 Bus1=176_168 Bus2=176_177 phases=3 Linecode=4c_.12 Length=1.2768 Units=m
New Line.LINE176_177 Bus1=176_170 Bus2=176_178 phases=3 Linecode=4c_.3 Length=0.94568 Units=m
New Line.LINE176_178 Bus1=176_170 Bus2=176_179 phases=3 Linecode=4c_.3 Length=0.94568 Units=m
New Line.LINE176_179 Bus1=176_172 Bus2=176_180 phases=3 Linecode=2c_.007 Length=0.3872 Units=m
New Line.LINE176_180 Bus1=176_172 Bus2=176_181 phases=3 Linecode=2c_.04 Length=0.98574 Units=m
New Line.LINE176_181 Bus1=176_173 Bus2=176_182 phases=3 Linecode=2c_.04 Length=0.11905 Units=m
New Line.LINE176_182 Bus1=176_174 Bus2=176_183 phases=3 Linecode=2c_.007 Length=0.082098 Units=m
New Line.LINE176_183 Bus1=176_174 Bus2=176_184 phases=3 Linecode=4c_.12 Length=8.4362 Units=m
New Line.LINE176_184 Bus1=176_175 Bus2=176_185 phases=3 Linecode=2c_.04 Length=0.31 Units=m
New Line.LINE176_185 Bus1=176_176 Bus2=176_186 phases=3 Linecode=4c_.12 Length=3.0573 Units=m
New Line.LINE176_186 Bus1=176_176 Bus2=176_187 phases=3 Linecode=4c_.12 Length=3.0573 Units=m
New Line.LINE176_187 Bus1=176_178 Bus2=176_188 phases=3 Linecode=4c_.3 Length=1.4233 Units=m
New Line.LINE176_188 Bus1=176_178 Bus2=176_189 phases=3 Linecode=4c_.3 Length=1.4233 Units=m
New Line.LINE176_189 Bus1=176_180 Bus2=176_190 phases=3 Linecode=2c_.007 Length=0.097129 Units=m
New Line.LINE176_190 Bus1=176_181 Bus2=176_191 phases=3 Linecode=2c_.04 Length=15.6478 Units=m
New Line.LINE176_191 Bus1=176_182 Bus2=176_192 phases=3 Linecode=2c_.04 Length=0.1063 Units=m
New Line.LINE176_192 Bus1=176_183 Bus2=176_193 phases=3 Linecode=2c_.007 Length=0.089274 Units=m
New Line.LINE176_193 Bus1=176_184 Bus2=176_194 phases=3 Linecode=4c_.12 Length=3.9959 Units=m
New Line.LINE176_194 Bus1=176_185 Bus2=176_195 phases=3 Linecode=2c_.04 Length=0.58034 Units=m
New Line.LINE176_195 Bus1=176_186 Bus2=176_196 phases=3 Linecode=4c_.12 Length=0.095692 Units=m
New Line.LINE176_196 Bus1=176_186 Bus2=176_197 phases=3 Linecode=4c_.12 Length=0.095692 Units=m
New Line.LINE176_197 Bus1=176_188 Bus2=176_198 phases=3 Linecode=4c_.3 Length=0.44314 Units=m
New Line.LINE176_198 Bus1=176_188 Bus2=176_199 phases=3 Linecode=4c_.3 Length=0.44314 Units=m
New Line.LINE176_199 Bus1=176_190 Bus2=176_200 phases=3 Linecode=2c_.007 Length=0.08297 Units=m
New Line.LINE176_200 Bus1=176_191 Bus2=176_201 phases=3 Linecode=2c_.04 Length=0.37 Units=m
New Line.LINE176_201 Bus1=176_192 Bus2=176_202 phases=3 Linecode=2c_.04 Length=0.24845 Units=m
New Line.LINE176_202 Bus1=176_193 Bus2=176_203 phases=3 Linecode=2c_.007 Length=0.089203 Units=m
New Line.LINE176_203 Bus1=176_194 Bus2=176_204 phases=3 Linecode=2c_.04 Length=8.3069 Units=m
New Line.LINE176_204 Bus1=176_194 Bus2=176_205 phases=3 Linecode=4c_.12 Length=0.45275 Units=m
New Line.LINE176_205 Bus1=176_195 Bus2=176_206 phases=3 Linecode=2c_.04 Length=1.1224 Units=m
New Line.LINE176_206 Bus1=176_196 Bus2=176_207 phases=3 Linecode=2c_.04 Length=7.333 Units=m
New Line.LINE176_207 Bus1=176_196 Bus2=176_208 phases=3 Linecode=4c_.12 Length=5.7086 Units=m
New Line.LINE176_208 Bus1=176_196 Bus2=176_209 phases=3 Linecode=4c_.12 Length=5.7086 Units=m
New Line.LINE176_209 Bus1=176_198 Bus2=176_210 phases=3 Linecode=4c_.3 Length=0.40655 Units=m
New Line.LINE176_210 Bus1=176_198 Bus2=176_211 phases=3 Linecode=4c_.3 Length=0.40655 Units=m
New Line.LINE176_211 Bus1=176_200 Bus2=176_212 phases=3 Linecode=2c_.007 Length=0.14236 Units=m
New Line.LINE176_212 Bus1=176_201 Bus2=176_213 phases=3 Linecode=2c_.04 Length=0.7163 Units=m
New Line.LINE176_213 Bus1=176_202 Bus2=176_214 phases=3 Linecode=2c_.04 Length=2.4789 Units=m
New Line.LINE176_214 Bus1=176_203 Bus2=176_215 phases=3 Linecode=2c_.007 Length=0.11627 Units=m
New Line.LINE176_215 Bus1=176_204 Bus2=176_216 phases=3 Linecode=2c_.04 Length=3.7623 Units=m
New Line.LINE176_216 Bus1=176_204 Bus2=176_217 phases=3 Linecode=2c_.04 Length=0.81052 Units=m
New Line.LINE176_217 Bus1=176_205 Bus2=176_218 phases=3 Linecode=4c_.12 Length=5.89 Units=m
New Line.LINE176_218 Bus1=176_206 Bus2=176_219 phases=3 Linecode=2c_.04 Length=0.79795 Units=m
New Line.LINE176_219 Bus1=176_207 Bus2=176_220 phases=3 Linecode=2c_.04 Length=4.0687 Units=m
New Line.LINE176_220 Bus1=176_207 Bus2=176_221 phases=3 Linecode=2c_.04 Length=0.51011 Units=m
New Line.LINE176_221 Bus1=176_207 Bus2=176_222 phases=3 Linecode=2c_.04 Length=0.51011 Units=m
New Line.LINE176_222 Bus1=176_208 Bus2=176_223 phases=3 Linecode=4c_.12 Length=4.9155 Units=m
New Line.LINE176_223 Bus1=176_208 Bus2=176_224 phases=3 Linecode=4c_.12 Length=4.9155 Units=m
New Line.LINE176_224 Bus1=176_210 Bus2=176_225 phases=3 Linecode=4c_.3 Length=0.37195 Units=m
New Line.LINE176_225 Bus1=176_210 Bus2=176_226 phases=3 Linecode=4c_.3 Length=0.37195 Units=m
New Line.LINE176_226 Bus1=176_212 Bus2=176_227 phases=3 Linecode=2c_.007 Length=0.18668 Units=m
New Line.LINE176_227 Bus1=176_213 Bus2=176_228 phases=3 Linecode=2c_.04 Length=0.23335 Units=m
New Line.LINE176_228 Bus1=176_214 Bus2=176_229 phases=3 Linecode=2c_.04 Length=0.24244 Units=m
New Line.LINE176_229 Bus1=176_215 Bus2=176_230 phases=3 Linecode=2c_.007 Length=0.14983 Units=m
New Line.LINE176_230 Bus1=176_217 Bus2=176_231 phases=3 Linecode=2c_.04 Length=0.27555 Units=m
New Line.LINE176_231 Bus1=176_218 Bus2=176_232 phases=3 Linecode=2c_.04 Length=2.2323 Units=m
New Line.LINE176_232 Bus1=176_218 Bus2=176_233 phases=3 Linecode=4c_.12 Length=4.1005 Units=m
New Line.LINE176_233 Bus1=176_219 Bus2=176_234 phases=3 Linecode=2c_.04 Length=0.18531 Units=m
New Line.LINE176_234 Bus1=176_221 Bus2=176_235 phases=3 Linecode=2c_.04 Length=0.092849 Units=m
New Line.LINE176_235 Bus1=176_221 Bus2=176_236 phases=3 Linecode=2c_.04 Length=0.092849 Units=m
New Line.LINE176_236 Bus1=176_223 Bus2=176_237 phases=3 Linecode=4c_.12 Length=4.3456 Units=m
New Line.LINE176_237 Bus1=176_223 Bus2=176_238 phases=3 Linecode=4c_.12 Length=4.3456 Units=m
New Line.LINE176_238 Bus1=176_225 Bus2=176_239 phases=3 Linecode=4c_.3 Length=0.28492 Units=m
New Line.LINE176_239 Bus1=176_225 Bus2=176_240 phases=3 Linecode=4c_.3 Length=0.28492 Units=m
New Line.LINE176_240 Bus1=176_227 Bus2=176_241 phases=3 Linecode=2c_.007 Length=0.70872 Units=m
New Line.LINE176_241 Bus1=176_228 Bus2=176_242 phases=3 Linecode=2c_.04 Length=0.37316 Units=m
New Line.LINE176_242 Bus1=176_229 Bus2=176_243 phases=3 Linecode=2c_.04 Length=0.26926 Units=m
New Line.LINE176_243 Bus1=176_230 Bus2=176_244 phases=3 Linecode=2c_.007 Length=0.16704 Units=m
New Line.LINE176_244 Bus1=176_231 Bus2=176_245 phases=3 Linecode=2c_.04 Length=0.097309 Units=m
New Line.LINE176_245 Bus1=176_232 Bus2=176_246 phases=3 Linecode=2c_.04 Length=3.5719 Units=m
New Line.LINE176_246 Bus1=176_233 Bus2=176_247 phases=3 Linecode=2c_.04 Length=1.1624 Units=m
New Line.LINE176_247 Bus1=176_233 Bus2=176_248 phases=3 Linecode=4c_.12 Length=1.8718 Units=m
New Line.LINE176_248 Bus1=176_234 Bus2=176_249 phases=3 Linecode=2c_.04 Length=0.16254 Units=m
New Line.LINE176_249 Bus1=176_235 Bus2=176_250 phases=3 Linecode=2c_.04 Length=0.069635 Units=m
New Line.LINE176_250 Bus1=176_235 Bus2=176_251 phases=3 Linecode=2c_.04 Length=0.069635 Units=m
New Line.LINE176_251 Bus1=176_237 Bus2=176_252 phases=3 Linecode=4c_.12 Length=0.45181 Units=m
New Line.LINE176_252 Bus1=176_237 Bus2=176_253 phases=3 Linecode=4c_.12 Length=0.45181 Units=m
New Line.LINE176_253 Bus1=176_239 Bus2=176_254 phases=3 Linecode=4c_.3 Length=1.272 Units=m
New Line.LINE176_254 Bus1=176_239 Bus2=176_255 phases=3 Linecode=4c_.3 Length=1.272 Units=m
New Line.LINE176_255 Bus1=176_242 Bus2=176_256 phases=3 Linecode=2c_.04 Length=10.3117 Units=m
New Line.LINE176_256 Bus1=176_243 Bus2=176_257 phases=3 Linecode=2c_.04 Length=0.19243 Units=m
New Line.LINE176_257 Bus1=176_244 Bus2=176_258 phases=3 Linecode=4_XSC Length=0.21505 Units=m
New Line.LINE176_258 Bus1=176_245 Bus2=176_259 phases=3 Linecode=2c_.04 Length=0.056612 Units=m
New Line.LINE176_259 Bus1=176_246 Bus2=176_260 phases=3 Linecode=2c_.04 Length=1.8024 Units=m
New Line.LINE176_260 Bus1=176_247 Bus2=176_261 phases=3 Linecode=2c_.04 Length=4.6693 Units=m
New Line.LINE176_261 Bus1=176_248 Bus2=176_262 phases=3 Linecode=4_XSC Length=0.11538 Units=m
New Line.LINE176_262 Bus1=176_248 Bus2=176_263 phases=3 Linecode=4c_.12 Length=2.3428 Units=m
New Line.LINE176_263 Bus1=176_249 Bus2=176_264 phases=3 Linecode=2c_.04 Length=0.11293 Units=m
New Line.LINE176_264 Bus1=176_250 Bus2=176_265 phases=3 Linecode=2c_.04 Length=0.059033 Units=m
New Line.LINE176_265 Bus1=176_250 Bus2=176_266 phases=3 Linecode=2c_.04 Length=0.059033 Units=m
New Line.LINE176_266 Bus1=176_252 Bus2=176_267 phases=3 Linecode=4c_.12 Length=5.0306 Units=m
New Line.LINE176_267 Bus1=176_252 Bus2=176_268 phases=3 Linecode=4c_.12 Length=5.0306 Units=m
New Line.LINE176_268 Bus1=176_254 Bus2=176_269 phases=3 Linecode=4c_.3 Length=4.5505 Units=m
New Line.LINE176_269 Bus1=176_254 Bus2=176_270 phases=3 Linecode=4c_.3 Length=4.5505 Units=m
New Line.LINE176_270 Bus1=176_256 Bus2=176_271 phases=3 Linecode=2c_.04 Length=0.51797 Units=m
New Line.LINE176_271 Bus1=176_257 Bus2=176_272 phases=3 Linecode=2c_.04 Length=0.18325 Units=m
New Line.LINE176_272 Bus1=176_258 Bus2=176_273 phases=3 Linecode=4_XSC Length=0.070804 Units=m
New Line.LINE176_273 Bus1=176_259 Bus2=176_274 phases=3 Linecode=2c_.04 Length=0.045892 Units=m
New Line.LINE176_274 Bus1=176_260 Bus2=176_275 phases=3 Linecode=2c_.04 Length=1.7199 Units=m
New Line.LINE176_275 Bus1=176_261 Bus2=176_276 phases=3 Linecode=2c_.04 Length=8.1415 Units=m
New Line.LINE176_276 Bus1=176_262 Bus2=176_277 phases=3 Linecode=4_XSC Length=0.13669 Units=m
New Line.LINE176_277 Bus1=176_263 Bus2=176_278 phases=3 Linecode=4c_.12 Length=8.4214 Units=m
New Line.LINE176_278 Bus1=176_264 Bus2=176_279 phases=3 Linecode=2c_.04 Length=0.13282 Units=m
New Line.LINE176_279 Bus1=176_265 Bus2=176_280 phases=3 Linecode=2c_.04 Length=0.041196 Units=m
New Line.LINE176_280 Bus1=176_265 Bus2=176_281 phases=3 Linecode=2c_.04 Length=0.041196 Units=m
New Line.LINE176_281 Bus1=176_267 Bus2=176_282 phases=3 Linecode=2c_.04 Length=1.3247 Units=m
New Line.LINE176_282 Bus1=176_267 Bus2=176_283 phases=3 Linecode=4c_.12 Length=5.1847 Units=m
New Line.LINE176_283 Bus1=176_267 Bus2=176_284 phases=3 Linecode=4c_.12 Length=5.1847 Units=m
New Line.LINE176_284 Bus1=176_269 Bus2=176_285 phases=3 Linecode=4c_.3 Length=3.0903 Units=m
New Line.LINE176_285 Bus1=176_269 Bus2=176_286 phases=3 Linecode=4c_.3 Length=3.0903 Units=m
New Line.LINE176_286 Bus1=176_271 Bus2=176_287 phases=3 Linecode=2c_.04 Length=0.34714 Units=m
New Line.LINE176_287 Bus1=176_272 Bus2=176_288 phases=3 Linecode=2c_.04 Length=1.1256 Units=m
New Line.LINE176_288 Bus1=176_273 Bus2=176_289 phases=3 Linecode=4_XSC Length=0.055607 Units=m
New Line.LINE176_289 Bus1=176_274 Bus2=176_290 phases=3 Linecode=2c_.04 Length=0.054 Units=m
New Line.LINE176_290 Bus1=176_275 Bus2=176_291 phases=3 Linecode=2c_.04 Length=6.0314 Units=m
New Line.LINE176_291 Bus1=176_276 Bus2=176_292 phases=3 Linecode=2c_.04 Length=0.94019 Units=m
New Line.LINE176_292 Bus1=176_276 Bus2=176_293 phases=3 Linecode=2c_.04 Length=0.97345 Units=m
New Line.LINE176_293 Bus1=176_277 Bus2=176_294 phases=3 Linecode=4_XSC Length=0.18327 Units=m
New Line.LINE176_294 Bus1=176_278 Bus2=176_295 phases=3 Linecode=4_XC Length=0.40054 Units=m
New Line.LINE176_295 Bus1=176_278 Bus2=176_296 phases=3 Linecode=4c_.12 Length=10.1956 Units=m
New Line.LINE176_296 Bus1=176_279 Bus2=176_297 phases=3 Linecode=2c_.04 Length=0.55605 Units=m
New Line.LINE176_297 Bus1=176_280 Bus2=176_298 phases=3 Linecode=2c_.04 Length=0.058215 Units=m
New Line.LINE176_298 Bus1=176_280 Bus2=176_299 phases=3 Linecode=2c_.04 Length=0.058215 Units=m
New Line.LINE176_299 Bus1=176_282 Bus2=176_300 phases=3 Linecode=2c_.04 Length=4.7411 Units=m
New Line.LINE176_300 Bus1=176_283 Bus2=176_301 phases=3 Linecode=4c_.12 Length=1.8986 Units=m
New Line.LINE176_301 Bus1=176_283 Bus2=176_302 phases=3 Linecode=4c_.12 Length=1.8986 Units=m
New Line.LINE176_302 Bus1=176_285 Bus2=176_303 phases=3 Linecode=3c_300_ASN Length=0.23049 Units=m
New Line.LINE176_303 Bus1=176_285 Bus2=176_304 phases=3 Linecode=4c_.3 Length=0.73944 Units=m
New Line.LINE176_304 Bus1=176_287 Bus2=176_305 phases=3 Linecode=2c_.007 Length=0.25403 Units=m
New Line.LINE176_305 Bus1=176_287 Bus2=176_306 phases=3 Linecode=2c_.04 Length=0.34262 Units=m
New Line.LINE176_306 Bus1=176_288 Bus2=176_307 phases=3 Linecode=2c_.04 Length=5.4459 Units=m
New Line.LINE176_307 Bus1=176_288 Bus2=176_308 phases=3 Linecode=2c_.04 Length=0.64642 Units=m
New Line.LINE176_308 Bus1=176_289 Bus2=176_309 phases=3 Linecode=4_XSC Length=0.055902 Units=m
New Line.LINE176_309 Bus1=176_290 Bus2=176_310 phases=3 Linecode=2c_.04 Length=0.047854 Units=m
New Line.LINE176_310 Bus1=176_291 Bus2=176_311 phases=3 Linecode=2c_.04 Length=6.7763 Units=m
New Line.LINE176_311 Bus1=176_291 Bus2=176_312 phases=3 Linecode=2c_.04 Length=4.5898 Units=m
New Line.LINE176_312 Bus1=176_292 Bus2=176_313 phases=3 Linecode=2c_.04 Length=2.9053 Units=m
New Line.LINE176_313 Bus1=176_293 Bus2=176_314 phases=3 Linecode=2c_.04 Length=0.37165 Units=m
New Line.LINE176_314 Bus1=176_294 Bus2=176_315 phases=3 Linecode=4_XSC Length=0.18707 Units=m
New Line.LINE176_315 Bus1=176_295 Bus2=176_316 phases=3 Linecode=4_XC Length=0.33362 Units=m
New Line.LINE176_316 Bus1=176_296 Bus2=176_317 phases=3 Linecode=4c_.12 Length=2.0195 Units=m
New Line.LINE176_317 Bus1=176_297 Bus2=176_318 phases=3 Linecode=2c_.04 Length=4.9817 Units=m
New Line.LINE176_318 Bus1=176_298 Bus2=176_319 phases=3 Linecode=2c_.04 Length=0.095709 Units=m