New Line.LINE176_30 Bus1=176_29 Bus2=176_31 phases=3 Linecode=4c_.25 Length=2.5219 Units=m
New Line.LINE176_60 Bus1=176_59 Bus2=176_61 phases=3 Linecode=4c_.3 Length=1.7201 Units=m
New Line.LINE176_61 Bus1=176_59 Bus2=176_62 phases=3 Linecode=4c_.3 Length=1.7201 Units=m
New Line.LINE176_63 Bus1=176_61 Bus2=176_64 phases=3 Linecode=4c_.3 Length=0.40106 Units=m
New Line.LINE176_64 Bus1=176_61 Bus2=176_65 phases=3 Linecode=4c_.3 Length=0.40106 Units=m
New Line.LINE176_66 Bus1=176_64 Bus2=176_67 phases=3 Linecode=4c_.3 Length=0.69797 Units=m
New Line.LINE176_67 Bus1=176_64 Bus2=176_68 phases=3 Linecode=4c_.3 Length=0.69797 Units=m
New Line.LINE176_69 Bus1=176_67 Bus2=176_70 phases=3 Linecode=4c_.3 Length=2.5268 Units=m
New Line.LINE176_70 Bus1=176_67 Bus2=176_71 phases=3 Linecode=4c_.3 Length=2.5268 Units=m
New Line.LINE176_72 Bus1=176_70 Bus2=176_73 phases=3 Linecode=4c_.3 Length=2.8369 Units=m
New Line.LINE176_73 Bus1=176_70 Bus2=176_74 phases=3 Linecode=4c_.3 Length=2.8369 Units=m
New Line.LINE176_75 Bus1=176_73 Bus2=176_76 phases=3 Linecode=4c_.3 Length=4.779 Units=m
New Line.LINE176_76 Bus1=176_73 Bus2=176_77 phases=3 Linecode=4c_.3 Length=4.779 Units=m
New Line.LINE176_78 Bus1=176_76 Bus2=176_79 phases=3 Linecode=4c_.3 Length=6.1817 Units=m
New Line.LINE176_79 Bus1=176_76 Bus2=176_80 phases=3 Linecode=4c_.3 Length=6.1817 Units=m
New Line.LINE176_81 Bus1=176_79 Bus2=176_82 phases=3 Linecode=4c_.3 Length=7.3749 Units=m
New Line.LINE176_82 Bus1=176_79 Bus2=176_83 phases=3 Linecode=4c_.3 Length=7.3749 Units=m
New Line.LINE176_84 Bus1=176_82 Bus2=176_85 phases=3 Linecode=4c_.3 Length=6.2018 Units=m
New Line.LINE176_85 Bus1=176_82 Bus2=176_86 phases=3 Linecode=4c_.3 Length=6.2018 Units=m
New Line.LINE176_87 Bus1=176_85 Bus2=176_88 phases=3 Linecode=4c_.3 Length=7.7846 Units=m
New Line.LINE176_88 Bus1=176_85 Bus2=176_89 phases=3 Linecode=4c_.3 Length=7.7846 Units=m
New Line.LINE176_90 Bus1=176_88 Bus2=176_91 phases=3 Linecode=4c_.3 Length=15.9976 Units=m
New Line.LINE176_91 Bus1=176_88 Bus2=176_92 phases=3 Linecode=4c_.3 Length=15.9976 Units=m
New Line.LINE176_93 Bus1=176_91 Bus2=176_94 phases=3 Linecode=4c_.3 Length=12.5019 Units=m
New Line.LINE176_94 Bus1=176_91 Bus2=176_95 phases=3 Linecode=4c_.3 Length=12.5019 Units=m
New Line.LINE176_96 Bus1=176_94 Bus2=176_97 phases=3 Linecode=4c_.3 Length=0.60844 Units=m
New Line.LINE176_97 Bus1=176_94 Bus2=176_98 phases=3 Linecode=4c_.3 Length=0.60844 Units=m
New Line.LINE176_99 Bus1=176_97 Bus2=176_100 phases=3 Linecode=4c_.3 Length=0.68412 Units=m
New Line.LINE176_100 Bus1=176_97 Bus2=176_101 phases=3 Linecode=4c_.3 Length=0.68412 Units=m
New Line.LINE176_102 Bus1=176_100 Bus2=176_103 phases=3 Linecode=4c_.3 Length=1.0432 Units=m
New Line.LINE176_103 Bus1=176_100 Bus2=176_104 phases=3 Linecode=4c_.3 Length=1.0432 Units=m
New Line.LINE176_104 Bus1=176_102 Bus2=176_105 phases=3 Linecode=4c_.12 Length=1.939 Units=m
New Line.LINE176_105 Bus1=176_102 Bus2=176_106 phases=3 Linecode=4c_.12 Length=1.7845 Units=m
New Line.LINE176_106 Bus1=176_102 Bus2=176_107 phases=3 Linecode=4c_.12 Length=1.7845 Units=m
New Line.LINE176_107 Bus1=176_103 Bus2=176_108 phases=3 Linecode=4c_.3 Length=0.87118 Units=m
New Line.LINE176_108 Bus1=176_103 Bus2=176_109 phases=3 Linecode=4c_.3 Length=0.87118 Units=m
New Line.LINE176_110 Bus1=176_105 Bus2=176_111 phases=3 Linecode=4c_.12 Length=1.6398 Units=m
New Line.LINE176_111 Bus1=176_106 Bus2=176_112 phases=3 Linecode=4c_.12 Length=2.0756 Units=m
New Line.LINE176_112 Bus1=176_106 Bus2=176_113 phases=3 Linecode=4c_.12 Length=2.0756 Units=m
New Line.LINE176_113 Bus1=176_108 Bus2=176_114 phases=3 Linecode=4c_.3 Length=1.1352 Units=m
New Line.LINE176_114 Bus1=176_108 Bus2=176_115 phases=3 Linecode=4c_.3 Length=1.1352 Units=m
New Line.LINE176_116 Bus1=176_111 Bus2=176_117 phases=3 Linecode=2c_.04 Length=6.8256 Units=m
New Line.LINE176_118 Bus1=176_112 Bus2=176_119 phases=3 Linecode=4c_.12 Length=0.69895 Units=m
New Line.LINE176_119 Bus1=176_112 Bus2=176_120 phases=3 Linecode=4c_.12 Length=0.69895 Units=m
New Line.LINE176_120 Bus1=176_114 Bus2=176_121 phases=3 Linecode=4c_.3 Length=0.79438 Units=m
New Line.LINE176_121 Bus1=176_114 Bus2=176_122 phases=3 Linecode=4c_.3 Length=0.79438 Units=m
New Line.LINE176_123 Bus1=176_117 Bus2=176_124 phases=3 Linecode=2c_.04 Length=4.4985 Units=m
New Line.LINE176_126 Bus1=176_119 Bus2=176_127 phases=3 Linecode=4c_.12 Length=0.3565 Units=m
New Line.LINE176_127 Bus1=176_119 Bus2=176_128 phases=3 Linecode=4c_.12 Length=0.3565 Units=m
New Line.LINE176_128 Bus1=176_121 Bus2=176_129 phases=3 Linecode=4c_.3 Length=1.0117 Units=m
New Line.LINE176_129 Bus1=176_121 Bus2=176_130 phases=3 Linecode=4c_.3 Length=1.0117 Units=m
New Line.LINE176_133 Bus1=176_127 Bus2=176_134 phases=3 Linecode=2c_.04 Length=8.8692 Units=m
New Line.LINE176_134 Bus1=176_127 Bus2=176_135 phases=3 Linecode=4c_.12 Length=0.26928 Units=m
New Line.LINE176_135 Bus1=176_127 Bus2=176_136 phases=3 Linecode=4c_.12 Length=0.26928 Units=m
New Line.LINE176_136 Bus1=176_129 Bus2=176_137 phases=3 Linecode=4c_.3 Length=0.76066 Units=m
New Line.LINE176_137 Bus1=176_129 Bus2=176_138 phases=3 Linecode=4c_.3 Length=0.76066 Units=m
New Line.LINE176_141 Bus1=176_134 Bus2=176_142 phases=3 Linecode=2c_.04 Length=5.0849 Units=m
New Line.LINE176_143 Bus1=176_135 Bus2=176_144 phases=3 Linecode=4c_.12 Length=0.87341 Units=m
New Line.LINE176_144 Bus1=176_135 Bus2=176_145 phases=3 Linecode=4c_.12 Length=0.87341 Units=m
New Line.LINE176_145 Bus1=176_137 Bus2=176_146 phases=3 Linecode=4c_.3 Length=0.90927 Units=m
New Line.LINE176_146 Bus1=176_137 Bus2=176_147 phases=3 Linecode=4c_.3 Length=0.90927 Units=m
New Line.LINE176_151 Bus1=176_144 Bus2=176_152 phases=3 Linecode=4c_.12 Length=1.6002 Units=m
New Line.LINE176_152 Bus1=176_144 Bus2=176_153 phases=3 Linecode=4c_.12 Length=1.6002 Units=m
New Line.LINE176_153 Bus1=176_146 Bus2=176_154 phases=3 Linecode=4c_.3 Length=0.88325 Units=m
New Line.LINE176_154 Bus1=176_146 Bus2=176_155 phases=3 Linecode=4c_.3 Length=0.88325 Units=m
New Line.LINE176_159 Bus1=176_152 Bus2=176_160 phases=3 Linecode=4c_.12 Length=0.77018 Units=m
New Line.LINE176_160 Bus1=176_152 Bus2=176_161 phases=3 Linecode=4c_.12 Length=0.77018 Units=m
New Line.LINE176_161 Bus1=176_154 Bus2=176_162 phases=3 Linecode=4c_.3 Length=1.0765 Units=m
New Line.LINE176_162 Bus1=176_154 Bus2=176_163 phases=3 Linecode=4c_.3 Length=1.0765 Units=m
New Line.LINE176_167 Bus1=176_160 Bus2=176_168 phases=3 Linecode=4c_.12 Length=1.2125 Units=m
New Line.LINE176_168 Bus1=176_160 Bus2=176_169 phases=3 Linecode=4c_.12 Length=1.2125 Units=m
New Line.LINE176_169 Bus1=176_162 Bus2=176_170 phases=3 Linecode=4c_.3 Length=0.93304 Units=m
New Line.LINE176_170 Bus1=176_162 Bus2=176_171 phases=3 Linecode=4c_.3 Length=0.93304 Units=m
New Line.LINE176_175 Bus1=176_168 Bus2=176_176 phases=3 Linecode=4c_.12 Length=1.2768 Units=m
New Line.LINE176_176 Bus1=176_168 Bus2=176_177 phases=3 Linecode=4c_.12 Length=1.2768 Units=m
New Line.LINE176_177 Bus1=176_170 Bus2=176_178 phases=3 Linecode=4c_.3 Length=0.94568 Units=m
New Line.LINE176_178 Bus1=176_170 Bus2=176_179 phases=3 Linecode=4c_.3 Length=0.94568 Units=m
New Line.LINE176_185 Bus1=176_176 Bus2=176_186 phases=3 Linecode=4c_.12 Length=3.0573 Units=m
New Line.LINE176_186 Bus1=176_176 Bus2=176_187 phases=3 Linecode=4c_.12 Length=3.0573 Units=m
New Line.LINE176_187 Bus1=176_178 Bus2=176_188 phases=3 Linecode=4c_.3 Length=1.4233 Units=m
New Line.LINE176_188 Bus1=176_178 Bus2=176_189 phases=3 Linecode=4c_.3 Length=1.4233 Units=m
New Line.LINE176_195 Bus1=176_186 Bus2=176_196 phases=3 Linecode=4c_.12 Length=0.095692 Units=m
New Line.LINE176_196 Bus1=176_186 Bus2=176_197 phases=3 Linecode=4c_.12 Length=0.095692 Units=m
New Line.LINE176_197 Bus1=176_188 Bus2=176_198 phases=3 Linecode=4c_.3 Length=0.44314 Units=m
New Line.LINE176_198 Bus1=176_188 Bus2=176_199 phases=3 Linecode=4c_.3 Length=0.44314 Units=m
New Line.LINE176_203 Bus1=176_194 Bus2=176_204 phases=3 Linecode=2c_.04 Length=8.3069 Units=m
New Line.LINE176_206 Bus1=176_196 Bus2=176_207 phases=3 Linecode=2c_.04 Length=7.333 Units=m
New Line.LINE176_207 Bus1=176_196 Bus2=176_208 phases=3 Linecode=4c_.12 Length=5.7086 Units=m
New Line.LINE176_208 Bus1=176_196 Bus2=176_209 phases=3 Linecode=4c_.12 Length=5.7086 Units=m
New Line.LINE176_209 Bus1=176_198 Bus2=176_210 phases=3 Linecode=4c_.3 Length=0.40655 Units=m
New Line.LINE176_210 Bus1=176_198 Bus2=176_211 phases=3 Linecode=4c_.3 Length=0.40655 Units=m
New Line.LINE176_215 Bus1=176_204 Bus2=176_216 phases=3 Linecode=2c_.04 Length=3.7623 Units=m
New Line.LINE176_219 Bus1=176_207 Bus2=176_220 phases=3 Linecode=2c_.04 Length=4.0687 Units=m
New Line.LINE176_220 Bus1=176_207 Bus2=176_221 phases=3 Linecode=2c_.04 Length=0.51011 Units=m
New Line.LINE176_221 Bus1=176_207 Bus2=176_222 phases=3 Linecode=2c_.04 Length=0.51011 Units=m
New Line.LINE176_222 Bus1=176_208 Bus2=176_223 phases=3 Linecode=4c_.12 Length=4.9155 Units=m
New Line.LINE176_223 Bus1=176_208 Bus2=176_224 phases=3 Linecode=4c_.12 Length=4.9155 Units=m
New Line.LINE176_224 Bus1=176_210 Bus2=176_225 phases=3 Linecode=4c_.3 Length=0.37195 Units=m
New Line.LINE176_225 Bus1=176_210 Bus2=176_226 phases=3 Linecode=4c_.3 Length=0.37195 Units=m
New Line.LINE176_232 Bus1=176_218 Bus2=176_233 phases=3 Linecode=4c_.12 Length=4.1005 Units=m
New Line.LINE176_234 Bus1=176_221 Bus2=176_235 phases=3 Linecode=2c_.04 Length=0.092849 Units=m
New Line.LINE176_235 Bus1=176_221 Bus2=176_236 phases=3 Linecode=2c_.04 Length=0.092849 Units=m
New Line.LINE176_236 Bus1=176_223 Bus2=176_237 phases=3 Linecode=4c_.12 Length=4.3456 Units=m
New Line.LINE176_237 Bus1=176_223 Bus2=176_238 phases=3 Linecode=4c_.12 Length=4.3456 Units=m
New Line.LINE176_238 Bus1=176_225 Bus2=176_239 phases=3 Linecode=4c_.3 Length=0.28492 Units=m
New Line.LINE176_239 Bus1=176_225 Bus2=176_240 phases=3 Linecode=4c_.3 Length=0.28492 Units=m
New Line.LINE176_247 Bus1=176_233 Bus2=176_248 phases=3 Linecode=4c_.12 Length=1.8718 Units=m
New Line.LINE176_249 Bus1=176_235 Bus2=176_250 phases=3 Linecode=2c_.04 Length=0.069635 Units=m
New Line.LINE176_250 Bus1=176_235 Bus2=176_251 phases=3 Linecode=2c_.04 Length=0.069635 Units=m
New Line.LINE176_251 Bus1=176_237 Bus2=176_252 phases=3 Linecode=4c_.12 Length=0.45181 Units=m
New Line.LINE176_252 Bus1=176_237 Bus2=176_253 phases=3 Linecode=4c_.12 Length=0.45181 Units=m
New Line.LINE176_253 Bus1=176_239 Bus2=176_254 phases=3 Linecode=4c_.3 Length=1.272 Units=m
New Line.LINE176_254 Bus1=176_239 Bus2=176_255 phases=3 Linecode=4c_.3 Length=1.272 Units=m
New Line.LINE176_264 Bus1=176_250 Bus2=176_265 phases=3 Linecode=2c_.04 Length=0.059033 Units=m
New Line.LINE176_265 Bus1=176_250 Bus2=176_266 phases=3 Linecode=2c_.04 Length=0.059033 Units=m
New Line.LINE176_266 Bus1=176_252 Bus2=176_267 phases=3 Linecode=4c_.12 Length=5.0306 Units=m
New Line.LINE176_267 Bus1=176_252 Bus2=176_268 phases=3 Linecode=4c_.12 Length=5.0306 Units=m
New Line.LINE176_268 Bus1=176_254 Bus2=176_269 phases=3 Linecode=4c_.3 Length=4.5505 Units=m
New Line.LINE176_269 Bus1=176_254 Bus2=176_270 phases=3 Linecode=4c_.3 Length=4.5505 Units=m
New Line.LINE176_279 Bus1=176_265 Bus2=176_280 phases=3 Linecode=2c_.04 Length=0.041196 Units=m
New Line.LINE176_280 Bus1=176_265 Bus2=176_281 phases=3 Linecode=2c_.04 Length=0.041196 Units=m
New Line.LINE176_282 Bus1=176_267 Bus2=176_283 phases=3 Linecode=4c_.12 Length=5.1847 Units=m
New Line.LINE176_283 Bus1=176_267 Bus2=176_284 phases=3 Linecode=4c_.12 Length=5.1847 Units=m
New Line.LINE176_284 Bus1=176_269 Bus2=176_285 phases=3 Linecode=4c_.3 Length=3.0903 Units=m
New Line.LINE176_285 Bus1=176_269 Bus2=176_286 phases=3 Linecode=4c_.3 Length=3.0903 Units=m
New Line.LINE176_297 Bus1=176_280 Bus2=176_298 phases=3 Linecode=2c_.04 Length=0.058215 Units=m
New Line.LINE176_298 Bus1=176_280 Bus2=176_299 phases=3 Linecode=2c_.04 Length=0.058215 Units=m
New Line.LINE176_300 Bus1=176_283 Bus2=176_301 phases=3 Linecode=4c_.12 Length=1.8986 Units=m
New Line.LINE176_301 Bus1=176_283 Bus2=176_302 phases=3 Linecode=4c_.12 Length=1.8986 Units=m
New Line.LINE176_306 Bus1=176_288 Bus2=176_307 phases=3 Linecode=2c_.04 Length=5.4459 Units=m
New Line.LINE176_318 Bus1=176_298 Bus2=176_319 phases=3 Linecode=2c_.04 Length=0.095709 Units=m
New Line.LINE176_319 Bus1=176_298 Bus2=176_320 phases=3 Linecode=2c_.04 Length=0.095709 Units=m
New Line.LINE176_321 Bus1=176_301 Bus2=176_322 phases=3 Linecode=4c_.12 Length=6.7282 Units=m
New Line.LINE176_322 Bus1=176_301 Bus2=176_323 phases=3 Linecode=2c_.04 Length=7.9363 Units=m
New Line.LINE176_323 Bus1=176_301 Bus2=176_324 phases=3 Linecode=4c_.12 Length=6.7282 Units=m
New Line.LINE176_338 Bus1=176_319 Bus2=176_339 phases=3 Linecode=2c_.04 Length=0.11182 Units=m
New Line.LINE176_339 Bus1=176_319 Bus2=176_340 phases=3 Linecode=2c_.04 Length=0.11182 Units=m
New Line.LINE176_341 Bus1=176_322 Bus2=176_342 phases=3 Linecode=4c_.12 Length=2.5429 Units=m
New Line.LINE176_342 Bus1=176_322 Bus2=176_343 phases=3 Linecode=4c_.12 Length=2.5429 Units=m
New Line.LINE176_344 Bus1=176_323 Bus2=176_345 phases=3 Linecode=2c_.04 Length=4.8547 Units=m
New Line.LINE176_359 Bus1=176_339 Bus2=176_360 phases=3 Linecode=2c_.04 Length=0.33005 Units=m
New Line.LINE176_360 Bus1=176_339 Bus2=176_361 phases=3 Linecode=2c_.04 Length=0.33005 Units=m
New Line.LINE176_363 Bus1=176_342 Bus2=176_364 phases=3 Linecode=4c_.12 Length=6.4899 Units=m
New Line.LINE176_364 Bus1=176_342 Bus2=176_365 phases=3 Linecode=4c_.12 Length=6.4899 Units=m
New Line.LINE176_378 Bus1=176_360 Bus2=176_379 phases=3 Linecode=2c_.04 Length=0.09902 Units=m
New Line.LINE176_379 Bus1=176_360 Bus2=176_380 phases=3 Linecode=2c_.04 Length=0.09902 Units=m
New Line.LINE176_382 Bus1=176_364 Bus2=176_383 phases=3 Linecode=4c_.12 Length=1.4222 Units=m
New Line.LINE176_383 Bus1=176_364 Bus2=176_384 phases=3 Linecode=4c_.12 Length=1.4222 Units=m
New Line.LINE176_397 Bus1=176_379 Bus2=176_398 phases=3 Linecode=2c_.04 Length=0.07433 Units=m
New Line.LINE176_398 Bus1=176_379 Bus2=176_399 phases=3 Linecode=2c_.04 Length=0.07433 Units=m
New Line.LINE176_400 Bus1=176_382 Bus2=176_401 phases=3 Linecode=2c_.04 Length=4.3632 Units=m
New Line.LINE176_402 Bus1=176_383 Bus2=176_403 phases=3 Linecode=2c_.04 Length=1.2969 Units=m
New Line.LINE176_403 Bus1=176_383 Bus2=176_404 phases=3 Linecode=4c_.12 Length=9.1674 Units=m
New Line.LINE176_409 Bus1=176_389 Bus2=176_410 phases=3 Linecode=2c_.04 Length=6.0619 Units=m
New Line.LINE176_420 Bus1=176_398 Bus2=176_421 phases=3 Linecode=2c_.04 Length=0.10486 Units=m
New Line.LINE176_421 Bus1=176_398 Bus2=176_422 phases=3 Linecode=2c_.04 Length=0.10486 Units=m
New Line.LINE176_424 Bus1=176_404 Bus2=176_425 phases=3 Linecode=4c_.12 Length=9.9701 Units=m
New Line.LINE176_425 Bus1=176_404 Bus2=176_426 phases=3 Linecode=4c_.12 Length=9.9701 Units=m
New Line.LINE176_426 Bus1=176_404 Bus2=176_427 phases=3 Linecode=4c_.12 Length=7.8143 Units=m
New Line.LINE176_430 Bus1=176_408 Bus2=176_431 phases=3 Linecode=4c_.12 Length=4.4387 Units=m
New Line.LINE176_432 Bus1=176_408 Bus2=176_433 phases=3 Linecode=4c_.12 Length=4.4387 Units=m
New Line.LINE176_433 Bus1=176_408 Bus2=176_434 phases=3 Linecode=4c_.12 Length=4.4387 Units=m
New Line.LINE176_439 Bus1=176_415 Bus2=176_440 phases=3 Linecode=2c_.04 Length=4.9893 Units=m
New Line.LINE176_440 Bus1=176_415 Bus2=176_441 phases=3 Linecode=2c_.04 Length=4.9893 Units=m
New Line.LINE176_447 Bus1=176_421 Bus2=176_448 phases=3 Linecode=2c_.04 Length=0.11611 Units=m
New Line.LINE176_448 Bus1=176_421 Bus2=176_449 phases=3 Linecode=2c_.04 Length=0.11611 Units=m
New Line.LINE176_451 Bus1=176_425 Bus2=176_452 phases=3 Linecode=4c_.12 Length=0.81646 Units=m
New Line.LINE176_452 Bus1=176_425 Bus2=176_453 phases=3 Linecode=4c_.12 Length=0.81646 Units=m
New Line.LINE176_456 Bus1=176_431 Bus2=176_457 phases=3 Linecode=4c_.12 Length=10.495 Units=m
New Line.LINE176_457 Bus1=176_431 Bus2=176_458 phases=3 Linecode=4c_.12 Length=10.495 Units=m
New Line.LINE176_458 Bus1=176_431 Bus2=176_459 phases=3 Linecode=4c_.12 Length=10.3085 Units=m
New Line.LINE176_471 Bus1=176_448 Bus2=176_472 phases=3 Linecode=2c_.04 Length=0.159 Units=m
New Line.LINE176_472 Bus1=176_448 Bus2=176_473 phases=3 Linecode=2c_.04 Length=0.159 Units=m
New Line.LINE176_475 Bus1=176_452 Bus2=176_476 phases=3 Linecode=4c_.12 Length=0.88704 Units=m
New Line.LINE176_476 Bus1=176_452 Bus2=176_477 phases=3 Linecode=4c_.12 Length=0.88704 Units=m
New Line.LINE176_480 Bus1=176_457 Bus2=176_481 phases=3 Linecode=4c_.12 Length=0.90565 Units=m
New Line.LINE176_481 Bus1=176_457 Bus2=176_482 phases=3 Linecode=4c_.12 Length=0.90565 Units=m
New Line.LINE176_482 Bus1=176_457 Bus2=176_483 phases=3 Linecode=2c_.04 Length=6.1533 Units=m
New Line.LINE176_483 Bus1=176_457 Bus2=176_484 phases=3 Linecode=4c_.12 Length=0.90565 Units=m
New Line.LINE176_484 Bus1=176_457 Bus2=176_485 phases=3 Linecode=4c_.12 Length=0.18652 Units=m
New Line.LINE176_486 Bus1=176_459 Bus2=176_487 phases=3 Linecode=2c_.007 Length=0.78342 Units=m
New Line.LINE176_498 Bus1=176_472 Bus2=176_499 phases=3 Linecode=2c_.04 Length=8.5739 Units=m
New Line.LINE176_499 Bus1=176_472 Bus2=176_500 phases=3 Linecode=2c_.04 Length=8.5739 Units=m
New Line.LINE176_502 Bus1=176_476 Bus2=176_503 phases=3 Linecode=4c_.12 Length=0.99914 Units=m
New Line.LINE176_503 Bus1=176_476 Bus2=176_504 phases=3 Linecode=4c_.12 Length=0.99914 Units=m
New Line.LINE176_507 Bus1=176_481 Bus2=176_508 phases=3 Linecode=4c_.12 Length=1.5432 Units=m
New Line.LINE176_508 Bus1=176_481 Bus2=176_509 phases=3 Linecode=4c_.12 Length=1.5432 Units=m
New Line.LINE176_509 Bus1=176_481 Bus2=176_510 phases=3 Linecode=4c_.12 Length=1.5432 Units=m
New Line.LINE176_511 Bus1=176_483 Bus2=176_512 phases=3 Linecode=2c_.04 Length=5.0943 Units=m
New Line.LINE176_525 Bus1=176_499 Bus2=176_526 phases=3 Linecode=2c_.04 Length=0.28867 Units=m
New Line.LINE176_526 Bus1=176_499 Bus2=176_527 phases=3 Linecode=2c_.04 Length=0.28867 Units=m
New Line.LINE176_529 Bus1=176_503 Bus2=176_530 phases=3 Linecode=4c_.12 Length=0.90506 Units=m
New Line.LINE176_530 Bus1=176_503 Bus2=176_531 phases=3 Linecode=4c_.12 Length=0.90506 Units=m
New Line.LINE176_534 Bus1=176_508 Bus2=176_535 phases=3 Linecode=4c_.12 Length=12.5963 Units=m
New Line.LINE176_535 Bus1=176_508 Bus2=176_536 phases=3 Linecode=4c_.12 Length=12.5963 Units=m
New Line.LINE176_536 Bus1=176_508 Bus2=176_537 phases=3 Linecode=4c_.12 Length=12.5963 Units=m
New Line.LINE176_551 Bus1=176_526 Bus2=176_552 phases=3 Linecode=2c_.04 Length=0.19602 Units=m
New Line.LINE176_552 Bus1=176_526 Bus2=176_553 phases=3 Linecode=2c_.04 Length=0.19602 Units=m
New Line.LINE176_555 Bus1=176_530 Bus2=176_556 phases=3 Linecode=4c_.12 Length=1.0124 Units=m
New Line.LINE176_556 Bus1=176_530 Bus2=176_557 phases=3 Linecode=4c_.12 Length=1.0124 Units=m
New Line.LINE176_560 Bus1=176_535 Bus2=176_561 phases=3 Linecode=4c_.12 Length=3.9825 Units=m
New Line.LINE176_561 Bus1=176_535 Bus2=176_562 phases=3 Linecode=2c_.04 Length=2.6607 Units=m
New Line.LINE176_562 Bus1=176_535 Bus2=176_563 phases=3 Linecode=4c_.12 Length=3.9825 Units=m
New Line.LINE176_563 Bus1=176_535 Bus2=176_564 phases=3 Linecode=2c_.04 Length=2.6607 Units=m
New Line.LINE176_564 Bus1=176_535 Bus2=176_565 phases=3 Linecode=4c_.12 Length=3.9825 Units=m
New Line.LINE176_574 Bus1=176_547 Bus2=176_575 phases=3 Linecode=2c_.04 Length=2.344 Units=m
New Line.LINE176_575 Bus1=176_547 Bus2=176_576 phases=3 Linecode=2c_.04 Length=2.344 Units=m
New Line.LINE176_576 Bus1=176_548 Bus2=176_577 phases=3 Linecode=2c_.04 Length=6.3346 Units=m
New Line.LINE176_578 Bus1=176_549 Bus2=176_579 phases=3 Linecode=2c_.04 Length=5.3837 Units=m
New Line.LINE176_582 Bus1=176_552 Bus2=176_583 phases=3 Linecode=2c_.04 Length=0.22366 Units=m
New Line.LINE176_583 Bus1=176_552 Bus2=176_584 phases=3 Linecode=2c_.04 Length=0.22366 Units=m
New Line.LINE176_586 Bus1=176_556 Bus2=176_587 phases=3 Linecode=4c_.12 Length=1.5157 Units=m
New Line.LINE176_587 Bus1=176_556 Bus2=176_588 phases=3 Linecode=4c_.12 Length=1.5157 Units=m
New Line.LINE176_593 Bus1=176_561 Bus2=176_594 phases=3 Linecode=4c_.12 Length=4.0781 Units=m
New Line.LINE176_594 Bus1=176_561 Bus2=176_595 phases=3 Linecode=4c_.12 Length=4.0781 Units=m
New Line.LINE176_595 Bus1=176_561 Bus2=176_596 phases=3 Linecode=4c_.12 Length=4.0781 Units=m
New Line.LINE176_596 Bus1=176_562 Bus2=176_597 phases=3 Linecode=2c_.04 Length=5.5686 Units=m
New Line.LINE176_597 Bus1=176_562 Bus2=176_598 phases=3 Linecode=2c_.04 Length=5.5686 Units=m
New Line.LINE176_601 Bus1=176_568 Bus2=176_602 phases=3 Linecode=2c_.04 Length=5.3316 Units=m
New Line.LINE176_612 Bus1=176_583 Bus2=176_613 phases=3 Linecode=2c_.04 Length=0.23943 Units=m
New Line.LINE176_613 Bus1=176_583 Bus2=176_614 phases=3 Linecode=2c_.04 Length=0.23943 Units=m
New Line.LINE176_616 Bus1=176_587 Bus2=176_617 phases=3 Linecode=4c_.12 Length=1.0234 Units=m
New Line.LINE176_617 Bus1=176_587 Bus2=176_618 phases=3 Linecode=4c_.12 Length=1.0234 Units=m
New Line.LINE176_623 Bus1=176_594 Bus2=176_624 phases=3 Linecode=4c_.12 Length=9.0874 Units=m
New Line.LINE176_624 Bus1=176_594 Bus2=176_625 phases=3 Linecode=4c_.12 Length=9.0874 Units=m
New Line.LINE176_625 Bus1=176_594 Bus2=176_626 phases=3 Linecode=4c_.12 Length=9.0874 Units=m
New Line.LINE176_626 Bus1=176_597 Bus2=176_627 phases=3 Linecode=2c_.04 Length=0.60161 Units=m
New Line.LINE176_627 Bus1=176_597 Bus2=176_628 phases=3 Linecode=2c_.04 Length=0.60161 Units=m
New Line.LINE176_643 Bus1=176_613 Bus2=176_644 phases=3 Linecode=2c_.04 Length=0.24136 Units=m
New Line.LINE176_644 Bus1=176_613 Bus2=176_645 phases=3 Linecode=2c_.04 Length=0.24136 Units=m
New Line.LINE176_647 Bus1=176_617 Bus2=176_648 phases=3 Linecode=4c_.12 Length=0.75407 Units=m
New Line.LINE176_648 Bus1=176_617 Bus2=176_649 phases=3 Linecode=4c_.12 Length=0.75407 Units=m
New Line.LINE176_653 Bus1=176_624 Bus2=176_654 phases=3 Linecode=4c_.12 Length=5.561 Units=m
New Line.LINE176_654 Bus1=176_624 Bus2=176_655 phases=3 Linecode=4c_.12 Length=5.561 Units=m
New Line.LINE176_655 Bus1=176_624 Bus2=176_656 phases=3 Linecode=4c_.12 Length=5.561 Units=m
New Line.LINE176_656 Bus1=176_627 Bus2=176_657 phases=3 Linecode=2c_.04 Length=0.25912 Units=m
New Line.LINE176_657 Bus1=176_627 Bus2=176_658 phases=3 Linecode=2c_.04 Length=0.25912 Units=m
New Line.LINE176_672 Bus1=176_644 Bus2=176_673 phases=3 Linecode=2c_.04 Length=0.49397 Units=m
New Line.LINE176_673 Bus1=176_644 Bus2=176_674 phases=3 Linecode=2c_.04 Length=0.49397 Units=m
New Line.LINE176_676 Bus1=176_648 Bus2=176_677 phases=3 Linecode=4c_.12 Length=0.51088 Units=m
New Line.LINE176_677 Bus1=176_648 Bus2=176_678 phases=3 Linecode=4c_.12 Length=0.51088 Units=m
New Line.LINE176_683 Bus1=176_654 Bus2=176_684 phases=3 Linecode=2c_.04 Length=6.5306 Units=m
New Line.LINE176_684 Bus1=176_654 Bus2=176_685 phases=3 Linecode=4c_.12 Length=2.1281 Units=m
New Line.LINE176_685 Bus1=176_654 Bus2=176_686 phases=3 Linecode=4c_.12 Length=2.1281 Units=m
New Line.LINE176_686 Bus1=176_657 Bus2=176_687 phases=3 Linecode=2c_.04 Length=0.20927 Units=m
New Line.LINE176_687 Bus1=176_657 Bus2=176_688 phases=3 Linecode=2c_.04 Length=0.20927 Units=m
New Line.LINE176_689 Bus1=176_660 Bus2=176_690 phases=3 Linecode=2c_.007 Length=0.13041 Units=m
New Line.LINE176_690 Bus1=176_660 Bus2=176_691 phases=3 Linecode=4c_.12 Length=1.4345 Units=m
New Line.LINE176_703 Bus1=176_673 Bus2=176_704 phases=3 Linecode=2c_.04 Length=7.0938 Units=m
New Line.LINE176_704 Bus1=176_673 Bus2=176_705 phases=3 Linecode=2c_.04 Length=7.0938 Units=m
New Line.LINE176_707 Bus1=176_677 Bus2=176_708 phases=3 Linecode=4c_.12 Length=0.94772 Units=m
New Line.LINE176_708 Bus1=176_677 Bus2=176_709 phases=3 Linecode=4c_.12 Length=0.94772 Units=m
New Line.LINE176_713 Bus1=176_684 Bus2=176_714 phases=3 Linecode=2c_.04 Length=3.832 Units=m
New Line.LINE176_714 Bus1=176_684 Bus2=176_715 phases=3 Linecode=2c_.04 Length=0.73921 Units=m
New Line.LINE176_715 Bus1=176_684 Bus2=176_716 phases=3 Linecode=2c_.04 Length=0.73921 Units=m
New Line.LINE176_716 Bus1=176_687 Bus2=176_717 phases=3 Linecode=2c_.04 Length=0.16808 Units=m
New Line.LINE176_717 Bus1=176_687 Bus2=176_718 phases=3 Linecode=2c_.04 Length=0.16808 Units=m
New Line.LINE176_720 Bus1=176_691 Bus2=176_721 phases=3 Linecode=2c_.04 Length=8.4976 Units=m
New Line.LINE176_733 Bus1=176_704 Bus2=176_734 phases=3 Linecode=2c_.04 Length=0.27857 Units=m
New Line.LINE176_734 Bus1=176_704 Bus2=176_735 phases=3 Linecode=2c_.04 Length=0.27857 Units=m
New Line.LINE176_741 Bus1=176_713 Bus2=176_742 phases=3 Linecode=4c_.12 Length=4.8234 Units=m
New Line.LINE176_742 Bus1=176_715 Bus2=176_743 phases=3 Linecode=2c_.04 Length=0.15 Units=m
New Line.LINE176_743 Bus1=176_715 Bus2=176_744 phases=3 Linecode=2c_.04 Length=0.15 Units=m
New Line.LINE176_744 Bus1=176_717 Bus2=176_745 phases=3 Linecode=2c_.04 Length=1.4743 Units=m
New Line.LINE176_745 Bus1=176_717 Bus2=176_746 phases=3 Linecode=2c_.04 Length=1.4743 Units=m
New Line.LINE176_752 Bus1=176_724 Bus2=176_753 phases=3 Linecode=2c_.04 Length=5.8887 Units=m
New Line.LINE176_753 Bus1=176_724 Bus2=176_754 phases=3 Linecode=2c_.04 Length=6.776 Units=m
New Line.LINE176_754 Bus1=176_724 Bus2=176_755 phases=3 Linecode=2c_.04 Length=6.776 Units=m
New Line.LINE176_763 Bus1=176_734 Bus2=176_764 phases=3 Linecode=2c_.04 Length=0.21727 Units=m
New Line.LINE176_764 Bus1=176_734 Bus2=176_765 phases=3 Linecode=2c_.04 Length=0.21727 Units=m
New Line.LINE176_771 Bus1=176_742 Bus2=176_772 phases=3 Linecode=25_PSC Length=9.14 Units=m
New Line.LINE176_772 Bus1=176_742 Bus2=176_773 phases=3 Linecode=4c_.12 Length=11.3679 Units=m
New Line.LINE176_773 Bus1=176_743 Bus2=176_774 phases=3 Linecode=2c_.04 Length=0.12269 Units=m
New Line.LINE176_774 Bus1=176_743 Bus2=176_775 phases=3 Linecode=2c_.04 Length=0.12269 Units=m
New Line.LINE176_775 Bus1=176_745 Bus2=176_776 phases=3 Linecode=2c_.04 Length=5.8392 Units=m
New Line.LINE176_776 Bus1=176_745 Bus2=176_777 phases=3 Linecode=2c_.04 Length=5.8392 Units=m
New Line.LINE176_777 Bus1=176_745 Bus2=176_778 phases=3 Linecode=2c_.04 Length=5.9753 Units=m
New Line.LINE176_784 Bus1=176_753 Bus2=176_785 phases=3 Linecode=2c_.04 Length=4.3663 Units=m
New Line.LINE176_785 Bus1=176_753 Bus2=176_786 phases=3 Linecode=2c_.04 Length=4.3663 Units=m
New Line.LINE176_794 Bus1=176_764 Bus2=176_795 phases=3 Linecode=2c_.04 Length=0.17119 Units=m
New Line.LINE176_795 Bus1=176_764 Bus2=176_796 phases=3 Linecode=2c_.04 Length=0.17119 Units=m
New Line.LINE176_798 Bus1=176_768 Bus2=176_799 phases=3 Linecode=35_SAC_XC Length=5.1489 Units=m
New Line.LINE176_806 Bus1=176_774 Bus2=176_807 phases=3 Linecode=2c_.04 Length=0.12847 Units=m
New Line.LINE176_807 Bus1=176_774 Bus2=176_808 phases=3 Linecode=2c_.04 Length=0.12847 Units=m
New Line.LINE176_808 Bus1=176_778 Bus2=176_809 phases=3 Linecode=2c_.04 Length=6.8782 Units=m
New Line.LINE176_809 Bus1=176_778 Bus2=176_810 phases=3 Linecode=2c_.04 Length=6.8782 Units=m
New Line.LINE176_824 Bus1=176_795 Bus2=176_825 phases=3 Linecode=2c_.04 Length=0.17952 Units=m
New Line.LINE176_825 Bus1=176_795 Bus2=176_826 phases=3 Linecode=2c_.04 Length=0.17952 Units=m
New Line.LINE176_835 Bus1=176_807 Bus2=176_836 phases=3 Linecode=2c_.04 Length=0.11526 Units=m
New Line.LINE176_836 Bus1=176_807 Bus2=176_837 phases=3 Linecode=2c_.04 Length=0.11526 Units=m
New Line.LINE176_851 Bus1=176_825 Bus2=176_852 phases=3 Linecode=2c_.04 Length=0.17901 Units=m
New Line.LINE176_852 Bus1=176_825 Bus2=176_853 phases=3 Linecode=2c_.04 Length=0.17901 Units=m
New Line.LINE176_861 Bus1=176_835 Bus2=176_862 phases=3 Linecode=2c_.04 Length=6.6184 Units=m
New Line.LINE176_863 Bus1=176_836 Bus2=176_864 phases=3 Linecode=2c_.04 Length=8.0223 Units=m
New Line.LINE176_864 Bus1=176_836 Bus2=176_865 phases=3 Linecode=2c_.04 Length=8.0223 Units=m
New Line.LINE176_876 Bus1=176_852 Bus2=176_877 phases=3 Linecode=2c_.04 Length=0.18991 Units=m
New Line.LINE176_877 Bus1=176_852 Bus2=176_878 phases=3 Linecode=2c_.04 Length=0.18991 Units=m
New Line.LINE176_886 Bus1=176_862 Bus2=176_887 phases=3 Linecode=2c_.04 Length=5.3031 Units=m
New Line.LINE176_889 Bus1=176_864 Bus2=176_890 phases=3 Linecode=2c_.04 Length=0.13424 Units=m
New Line.LINE176_890 Bus1=176_864 Bus2=176_891 phases=3 Linecode=2c_.04 Length=0.13424 Units=m
New Line.LINE176_892 Bus1=176_866 Bus2=176_893 phases=3 Linecode=4c_.12 Length=2.5968 Units=m
New Line.LINE176_902 Bus1=176_877 Bus2=176_903 phases=3 Linecode=2c_.04 Length=0.32189 Units=m
New Line.LINE176_903 Bus1=176_877 Bus2=176_904 phases=3 Linecode=2c_.04 Length=0.32189 Units=m
New Line.LINE176_913 Bus1=176_889 Bus2=176_914 phases=3 Linecode=2c_.04 Length=7.383 Units=m
New Line.LINE176_915 Bus1=176_890 Bus2=176_916 phases=3 Linecode=2c_.04 Length=0.13506 Units=m
New Line.LINE176_916 Bus1=176_890 Bus2=176_917 phases=3 Linecode=2c_.04 Length=0.13506 Units=m
New Line.LINE176_918 Bus1=176_893 Bus2=176_919 phases=3 Linecode=2c_.04 Length=5.2271 Units=m
New Line.LINE176_929 Bus1=176_903 Bus2=176_930 phases=3 Linecode=2c_.04 Length=1.7277 Units=m
New Line.LINE176_930 Bus1=176_903 Bus2=176_931 phases=3 Linecode=2c_.04 Length=1.7277 Units=m
New Line.LINE176_943 Bus1=176_916 Bus2=176_944 phases=3 Linecode=2c_.04 Length=0.13384 Units=m
New Line.LINE176_944 Bus1=176_916 Bus2=176_945 phases=3 Linecode=2c_.04 Length=0.13384 Units=m
New Line.LINE176_970 Bus1=176_943 Bus2=176_971 phases=3 Linecode=4c_.12 Length=11.2482 Units=m
New Line.LINE176_971 Bus1=176_944 Bus2=176_972 phases=3 Linecode=2c_.04 Length=0.13445 Units=m
New Line.LINE176_972 Bus1=176_944 Bus2=176_973 phases=3 Linecode=2c_.04 Length=0.13445 Units=m
New Line.LINE176_979 Bus1=176_953 Bus2=176_980 phases=3 Linecode=2c_.04 Length=6.0623 Units=m
New Line.LINE176_996 Bus1=176_972 Bus2=176_997 phases=3 Linecode=2c_.04 Length=0.1342 Units=m
New Line.LINE176_997 Bus1=176_972 Bus2=176_998 phases=3 Linecode=2c_.04 Length=0.1342 Units=m
New Line.LINE176_1020 Bus1=176_997 Bus2=176_1021 phases=3 Linecode=2c_.04 Length=0.13462 Units=m
New Line.LINE176_1021 Bus1=176_997 Bus2=176_1022 phases=3 Linecode=2c_.04 Length=0.13462 Units=m