New Line.LINE55 Bus1=53 Bus2=56 phases=3 Linecode=2c_.04 Length=6.7095 Units=m
New Line.LINE101 Bus1=96 Bus2=102 phases=3 Linecode=2c_.04 Length=3.3635 Units=m
New Line.LINE103 Bus1=97 Bus2=104 phases=3 Linecode=2c_.04 Length=4.0329 Units=m
New Line.LINE130 Bus1=123 Bus2=131 phases=3 Linecode=2c_.04 Length=7.2512 Units=m
New Line.LINE140 Bus1=131 Bus2=141 phases=3 Linecode=2c_.04 Length=4.6693 Units=m
New Line.LINE150 Bus1=142 Bus2=151 phases=3 Linecode=2c_.04 Length=6.0658 Units=m
New Line.LINE210 Bus1=200 Bus2=211 phases=3 Linecode=4c_.25 Length=11.0652 Units=m
New Line.LINE211 Bus1=201 Bus2=212 phases=3 Linecode=2c_.04 Length=4.0654 Units=m
New Line.LINE216 Bus1=205 Bus2=217 phases=3 Linecode=2c_.04 Length=4.0018 Units=m
New Line.LINE227 Bus1=214 Bus2=228 phases=3 Linecode=2c_.04 Length=4.2218 Units=m
New Line.LINE231 Bus1=218 Bus2=232 phases=3 Linecode=2c_.04 Length=4.2077 Units=m
New Line.LINE257 Bus1=243 Bus2=258 phases=3 Linecode=2c_.04 Length=5.0758 Units=m
New Line.LINE266 Bus1=251 Bus2=267 phases=3 Linecode=2c_.04 Length=6.7974 Units=m
New Line.LINE280 Bus1=265 Bus2=281 phases=3 Linecode=2c_.04 Length=2.815 Units=m
New Line.LINE293 Bus1=278 Bus2=294 phases=3 Linecode=2c_.04 Length=7.5007 Units=m
New Line.LINE309 Bus1=294 Bus2=310 phases=3 Linecode=2c_.04 Length=2.467 Units=m
New Line.LINE348 Bus1=331 Bus2=349 phases=3 Linecode=4c_.25 Length=3.9607 Units=m
New Line.LINE367 Bus1=349 Bus2=368 phases=3 Linecode=2c_.04 Length=4.3534 Units=m
New Line.LINE440 Bus1=421 Bus2=441 phases=3 Linecode=2c_.04 Length=8.22 Units=m
New Line.LINE441 Bus1=421 Bus2=442 phases=3 Linecode=2c_.04 Length=3.4826 Units=m
New Line.LINE445 Bus1=424 Bus2=446 phases=3 Linecode=2c_.04 Length=4.5578 Units=m
New Line.LINE464 Bus1=444 Bus2=465 phases=3 Linecode=2c_.04 Length=4.384 Units=m
New Line.LINE492 Bus1=469 Bus2=493 phases=3 Linecode=2c_25 Length=5.3207 Units=m
New Line.LINE506 Bus1=483 Bus2=507 phases=3 Linecode=3c_.04 Length=3.5235 Units=m
New Line.LINE517 Bus1=494 Bus2=518 phases=3 Linecode=2c_25 Length=6.9692 Units=m
New Line.LINE527 Bus1=504 Bus2=528 phases=3 Linecode=2c_.04 Length=7.2537 Units=m
New Line.LINE528 Bus1=504 Bus2=529 phases=3 Linecode=4c_.06 Length=1.6403 Units=m
New Line.LINE530 Bus1=505 Bus2=531 phases=3 Linecode=3c_.04 Length=5.3906 Units=m
New Line.LINE559 Bus1=534 Bus2=560 phases=3 Linecode=2c_.04 Length=4.8635 Units=m
New Line.LINE589 Bus1=565 Bus2=590 phases=3 Linecode=2c_.04 Length=3.7153 Units=m
New Line.LINE603 Bus1=577 Bus2=604 phases=3 Linecode=4c_.25 Length=4.3797 Units=m
New Line.LINE619 Bus1=592 Bus2=620 phases=3 Linecode=2c_.04 Length=4.7061 Units=m
New Line.LINE634 Bus1=604 Bus2=635 phases=3 Linecode=4c_.25 Length=11.0783 Units=m
New Line.LINE638 Bus1=609 Bus2=639 phases=3 Linecode=4c_.04 Length=1.1767 Units=m
New Line.LINE668 Bus1=639 Bus2=669 phases=3 Linecode=4c_.04 Length=7.8365 Units=m
New Line.LINE699 Bus1=667 Bus2=700 phases=3 Linecode=2c_.04 Length=5.4667 Units=m
New Line.LINE701 Bus1=668 Bus2=702 phases=3 Linecode=2c_.04 Length=4.8917 Units=m
New Line.LINE702 Bus1=669 Bus2=703 phases=3 Linecode=16_PSC Length=7.7524 Units=m
New Line.LINE821 Bus1=795 Bus2=822 phases=3 Linecode=16_PSC Length=4.5613 Units=m
New Line.LINE822 Bus1=795 Bus2=823 phases=3 Linecode=16_PSC Length=4.5613 Units=m
New Line.LINE839 Bus1=812 Bus2=840 phases=3 Linecode=2c_.04 Length=2.5106 Units=m
New Line.LINE865 Bus1=842 Bus2=866 phases=3 Linecode=2c_.04 Length=5.6608 Units=m
New Line.LINE889 Bus1=868 Bus2=890 phases=3 Linecode=2c_.04 Length=4.2233 Units=m
New Line.LINE895 Bus1=874 Bus2=896 phases=3 Linecode=16_PSC Length=2.5914 Units=m
New Line.LINE896 Bus1=874 Bus2=897 phases=3 Linecode=16_PSC Length=2.5914 Units=m
New Line.LINE938 Bus1=924 Bus2=939 phases=3 Linecode=4c_.06 Length=3.6813 Units=m
New Line.LINE940 Bus1=924 Bus2=941 phases=3 Linecode=2c_.04 Length=7.9167 Units=m
New Line.LINE950 Bus1=935 Bus2=951 phases=3 Linecode=2c_.04 Length=13.2093 Units=m
New Line.LINE955 Bus1=939 Bus2=956 phases=3 Linecode=4c_.06 Length=6.9605 Units=m
New Line.LINE957 Bus1=941 Bus2=958 phases=3 Linecode=2c_.04 Length=5.1934 Units=m
New Line.LINE967 Bus1=951 Bus2=968 phases=3 Linecode=2c_.04 Length=5.0257 Units=m
New Line.LINE973 Bus1=956 Bus2=974 phases=3 Linecode=4c_.06 Length=4.4292 Units=m
New Line.LINE990 Bus1=974 Bus2=991 phases=3 Linecode=2c_.04 Length=8.3175 Units=m
New Line.LINE991 Bus1=974 Bus2=992 phases=3 Linecode=4c_.06 Length=15.1499 Units=m
New Line.LINE1011 Bus1=991 Bus2=1012 phases=3 Linecode=2c_.04 Length=5.2332 Units=m
New Line.LINE1024 Bus1=1002 Bus2=1025 phases=3 Linecode=2c_.04 Length=5.9953 Units=m
New Line.LINE1025 Bus1=1002 Bus2=1026 phases=3 Linecode=2c_.04 Length=5.9953 Units=m
New Line.LINE1044 Bus1=1021 Bus2=1045 phases=3 Linecode=2c_.04 Length=6.3831 Units=m
New Line.LINE1045 Bus1=1021 Bus2=1046 phases=3 Linecode=2c_.04 Length=6.3831 Units=m
New Line.LINE1069 Bus1=1050 Bus2=1070 phases=3 Linecode=2c_.04 Length=5.3474 Units=m
New Line.LINE1070 Bus1=1050 Bus2=1071 phases=3 Linecode=2c_.04 Length=5.3474 Units=m
New Line.LINE1113 Bus1=1097 Bus2=1114 phases=3 Linecode=2c_.04 Length=5.3997 Units=m
New Line.LINE1118 Bus1=1101 Bus2=1119 phases=3 Linecode=2c_.04 Length=3.895 Units=m
New Line.LINE1119 Bus1=1101 Bus2=1120 phases=3 Linecode=2c_.04 Length=3.895 Units=m
New Line.LINE1124 Bus1=1106 Bus2=1125 phases=3 Linecode=2c_.04 Length=5.937 Units=m
New Line.LINE1125 Bus1=1106 Bus2=1126 phases=3 Linecode=2c_.04 Length=5.937 Units=m
New Line.LINE1164 Bus1=1147 Bus2=1165 phases=3 Linecode=2c_.04 Length=4.1276 Units=m
New Line.LINE1173 Bus1=1156 Bus2=1174 phases=3 Linecode=2c_.04 Length=4.9159 Units=m
New Line.LINE1247 Bus1=1235 Bus2=1248 phases=3 Linecode=2c_.04 Length=7.6118 Units=m
New Line.LINE1251 Bus1=1238 Bus2=1252 phases=3 Linecode=2c_.04 Length=2.3274 Units=m
New Line.LINE1252 Bus1=1238 Bus2=1253 phases=3 Linecode=2c_.04 Length=2.3274 Units=m
New Line.LINE1253 Bus1=1239 Bus2=1254 phases=3 Linecode=2c_.04 Length=8.006 Units=m
New Line.LINE1254 Bus1=1239 Bus2=1255 phases=3 Linecode=2c_.04 Length=8.006 Units=m
New Line.LINE1280 Bus1=1268 Bus2=1281 phases=3 Linecode=2c_.04 Length=5.4981 Units=m
New Line.LINE1281 Bus1=1268 Bus2=1282 phases=3 Linecode=2c_.04 Length=5.4981 Units=m
New Line.LINE1308 Bus1=1297 Bus2=1309 phases=3 Linecode=4c_.04 Length=11.433 Units=m
New Line.LINE1315 Bus1=1303 Bus2=1316 phases=3 Linecode=2c_.04 Length=6.8632 Units=m
New Line.LINE1316 Bus1=1303 Bus2=1317 phases=3 Linecode=2c_.04 Length=6.8632 Units=m
New Line.LINE1333 Bus1=1322 Bus2=1334 phases=3 Linecode=2c_.04 Length=5.1168 Units=m
New Line.LINE1334 Bus1=1322 Bus2=1335 phases=3 Linecode=2c_.04 Length=5.1168 Units=m
New Line.LINE1343 Bus1=1331 Bus2=1344 phases=3 Linecode=2c_.04 Length=3.3703 Units=m
New Line.LINE1344 Bus1=1331 Bus2=1345 phases=3 Linecode=2c_.04 Length=3.3703 Units=m
New Line.LINE1354 Bus1=1342 Bus2=1355 phases=3 Linecode=2c_.04 Length=3.7568 Units=m
New Line.LINE1368 Bus1=1359 Bus2=1369 phases=3 Linecode=2c_.04 Length=6.5888 Units=m
New Line.LINE1370 Bus1=1360 Bus2=1371 phases=3 Linecode=2c_.04 Length=5.1502 Units=m
New Line.LINE1396 Bus1=1386 Bus2=1397 phases=3 Linecode=2c_.04 Length=3.2571 Units=m
New Line.LINE1412 Bus1=1402 Bus2=1413 phases=3 Linecode=2c_.04 Length=3.4625 Units=m
New Line.LINE1418 Bus1=1408 Bus2=1419 phases=3 Linecode=2c_.04 Length=4.4401 Units=m
New Line.LINE1419 Bus1=1408 Bus2=1420 phases=3 Linecode=2c_.04 Length=4.4401 Units=m
New Line.LINE1435 Bus1=1424 Bus2=1436 phases=3 Linecode=2c_.04 Length=4.3498 Units=m
New Line.LINE1474 Bus1=1467 Bus2=1475 phases=3 Linecode=2c_.04 Length=0.49008 Units=m
New Line.LINE1475 Bus1=1467 Bus2=1476 phases=3 Linecode=2c_.04 Length=2.0999 Units=m
New Line.LINE1477 Bus1=1469 Bus2=1478 phases=3 Linecode=2c_.04 Length=6.0455 Units=m
New Line.LINE1485 Bus1=1475 Bus2=1486 phases=3 Linecode=3c_.04 Length=4.0441 Units=m
New Line.LINE1487 Bus1=1476 Bus2=1488 phases=3 Linecode=3c_.04 Length=3.2927 Units=m
New Line.LINE1513 Bus1=1503 Bus2=1514 phases=3 Linecode=2c_.04 Length=4.8397 Units=m
New Line.LINE1514 Bus1=1503 Bus2=1515 phases=3 Linecode=2c_.04 Length=7.2461 Units=m
New Line.LINE1547 Bus1=1540 Bus2=1548 phases=3 Linecode=4c_.04 Length=11.6486 Units=m
New Line.LINE1600 Bus1=1593 Bus2=1601 phases=3 Linecode=2c_.04 Length=4.121 Units=m
New Line.LINE1610 Bus1=1603 Bus2=1611 phases=3 Linecode=2c_.04 Length=3.7745 Units=m
New Line.LINE1680 Bus1=1673 Bus2=1681 phases=3 Linecode=25_SAC_XC Length=5.6849 Units=m
New Line.LINE1684 Bus1=1675 Bus2=1685 phases=3 Linecode=2c_.04 Length=4.092 Units=m
New Line.LINE1686 Bus1=1676 Bus2=1687 phases=3 Linecode=2c_.04 Length=2.6414 Units=m
New Line.LINE1688 Bus1=1679 Bus2=1689 phases=3 Linecode=2c_.04 Length=4.3083 Units=m
New Line.LINE1702 Bus1=1696 Bus2=1703 phases=3 Linecode=2c_.04 Length=3.5021 Units=m
New Line.LINE1733 Bus1=1729 Bus2=1734 phases=3 Linecode=4c_.25 Length=4.1446 Units=m
New Line.LINE1738 Bus1=1734 Bus2=1739 phases=3 Linecode=2c_.04 Length=6.0382 Units=m
New Line.LINE1781 Bus1=1775 Bus2=1782 phases=3 Linecode=2c_.04 Length=5.0161 Units=m
New Line.LINE1785 Bus1=1777 Bus2=1786 phases=3 Linecode=4c_.25 Length=13.6692 Units=m
New Line.LINE1796 Bus1=1789 Bus2=1797 phases=3 Linecode=2c_.04 Length=4.6746 Units=m
New Line.LINE1807 Bus1=1799 Bus2=1808 phases=3 Linecode=2c_.04 Length=2.9815 Units=m
New Line.LINE1810 Bus1=1801 Bus2=1811 phases=3 Linecode=2c_.04 Length=4.1446 Units=m
New Line.LINE1814 Bus1=1803 Bus2=1815 phases=3 Linecode=2c_.04 Length=6.1171 Units=m
New Line.LINE1901 Bus1=1889 Bus2=1902 phases=3 Linecode=2c_.04 Length=5.1606 Units=m
New Line.LINE1938 Bus1=1926 Bus2=1939 phases=3 Linecode=2c_.04 Length=3.3374 Units=m
New Line.LINE1968 Bus1=1956 Bus2=1969 phases=3 Linecode=2c_.04 Length=4.7033 Units=m
New Line.LINE2009 Bus1=1995 Bus2=2010 phases=3 Linecode=4c_.06 Length=3.1868 Units=m
New Line.LINE2018 Bus1=2004 Bus2=2019 phases=3 Linecode=3c_.04 Length=5.3502 Units=m
New Line.LINE2020 Bus1=2005 Bus2=2021 phases=3 Linecode=3c_.04 Length=3.3252 Units=m
New Line.LINE2026 Bus1=2010 Bus2=2027 phases=3 Linecode=2c_.04 Length=8.3027 Units=m
New Line.LINE2032 Bus1=2015 Bus2=2033 phases=3 Linecode=3c_95_SAC_XC Length=0.81763 Units=m
New Line.LINE2073 Bus1=2051 Bus2=2074 phases=3 Linecode=4c_.25 Length=15.6609 Units=m
New Line.LINE2189 Bus1=2165 Bus2=2190 phases=3 Linecode=2c_.04 Length=5.2738 Units=m
New Line.LINE2191 Bus1=2166 Bus2=2192 phases=3 Linecode=25_SAC_XC Length=6.0758 Units=m
New Line.LINE2193 Bus1=2167 Bus2=2194 phases=3 Linecode=2c_.04 Length=4.2738 Units=m
New Line.LINE2278 Bus1=2251 Bus2=2279 phases=3 Linecode=2c_.04 Length=3.5743 Units=m
New Line.LINE2279 Bus1=2251 Bus2=2280 phases=3 Linecode=2c_.04 Length=3.5743 Units=m
New Line.LINE2287 Bus1=2259 Bus2=2288 phases=3 Linecode=2c_.04 Length=4.0072 Units=m
New Line.LINE2305 Bus1=2276 Bus2=2306 phases=3 Linecode=2c_.04 Length=3.8839 Units=m
New Line.LINE2316 Bus1=2286 Bus2=2317 phases=3 Linecode=2c_.04 Length=13.2658 Units=m
New Line.LINE2329 Bus1=2300 Bus2=2330 phases=3 Linecode=35_SAC_PC Length=4.4194 Units=m
New Line.LINE2345 Bus1=2317 Bus2=2346 phases=3 Linecode=2c_.04 Length=3.2062 Units=m
New Line.LINE2368 Bus1=2340 Bus2=2369 phases=3 Linecode=2c_.04 Length=4.5148 Units=m
New Line.LINE2370 Bus1=2341 Bus2=2371 phases=3 Linecode=2c_.04 Length=5.2818 Units=m
New Line.LINE2378 Bus1=2347 Bus2=2379 phases=3 Linecode=2c_.04 Length=3.6768 Units=m
New Line.LINE2428 Bus1=2402 Bus2=2429 phases=3 Linecode=2c_.04 Length=4.4318 Units=m
New Line.LINE2463 Bus1=2438 Bus2=2464 phases=3 Linecode=25_SAC_XC Length=6.8433 Units=m
New Line.LINE2464 Bus1=2438 Bus2=2465 phases=3 Linecode=25_SAC_XC Length=6.8433 Units=m
New Line.LINE2482 Bus1=2457 Bus2=2483 phases=3 Linecode=2c_.04 Length=4.9182 Units=m
New Line.LINE2493 Bus1=2469 Bus2=2494 phases=3 Linecode=35_SAC_PC Length=3.6023 Units=m
New Line.LINE2534 Bus1=2513 Bus2=2535 phases=3 Linecode=35_SAC_PC Length=6.9347 Units=m
New Line.LINE2547 Bus1=2529 Bus2=2548 phases=3 Linecode=2c_.04 Length=4.3401 Units=m
New Line.LINE2574 Bus1=2559 Bus2=2575 phases=3 Linecode=2c_.04 Length=4.7984 Units=m
New Line.LINE2576 Bus1=2560 Bus2=2577 phases=3 Linecode=2c_.04 Length=3.6907 Units=m
New Line.LINE2595 Bus1=2581 Bus2=2596 phases=3 Linecode=2c_.04 Length=5.1003 Units=m
New Line.LINE2597 Bus1=2582 Bus2=2598 phases=3 Linecode=2c_.04 Length=5.2284 Units=m
New Line.LINE2614 Bus1=2601 Bus2=2615 phases=3 Linecode=2c_.04 Length=3.3739 Units=m
New Line.LINE2653 Bus1=2641 Bus2=2654 phases=3 Linecode=2c_.04 Length=4.7561 Units=m
New Line.LINE2682 Bus1=2671 Bus2=2683 phases=3 Linecode=2c_.04 Length=4.633 Units=m
New Line.LINE2711 Bus1=2700 Bus2=2712 phases=3 Linecode=3c_.06 Length=2.3329 Units=m
New Line.LINE2723 Bus1=2711 Bus2=2724 phases=3 Linecode=3c_.06 Length=3.4674 Units=m
New Line.LINE2784 Bus1=2778 Bus2=2785 phases=3 Linecode=3c_.06 Length=5.0962 Units=m
New Line.LINE2791 Bus1=2784 Bus2=2792 phases=3 Linecode=2c_.04 Length=5.9373 Units=m
New Line.LINE2802 Bus1=2797 Bus2=2803 phases=3 Linecode=2c_.04 Length=3.1556 Units=m
New Line.LINE2803 Bus1=2797 Bus2=2804 phases=3 Linecode=2c_.04 Length=3.1556 Units=m
New Line.LINE2814 Bus1=2810 Bus2=2815 phases=3 Linecode=2c_.04 Length=3.0263 Units=m
New Line.LINE2815 Bus1=2810 Bus2=2816 phases=3 Linecode=2c_.04 Length=3.0263 Units=m
New Line.LINECmpd_0 Bus1=941 Bus2=1201 phases=3 Linecode=2c_.04 Length=17.30548 Units=m
New Line.LINECmpd_1 Bus1=1540 Bus2=1643 phases=3 Linecode=4c_.25 Length=25.41092 Units=m
New Line.LINECmpd_2 Bus1=1643 Bus2=1729 phases=3 Linecode=4c_.25 Length=14.20152 Units=m
New Line.LINECmpd_3 Bus1=1548 Bus2=1593 phases=3 Linecode=2c_.04 Length=5.112131 Units=m
New Line.LINECmpd_4 Bus1=425 Bus2=565 phases=3 Linecode=2c_.04 Length=6.90096 Units=m
New Line.LINECmpd_5 Bus1=1210 Bus2=1402 phases=3 Linecode=2c_.04 Length=22.613187 Units=m
New Line.LINECmpd_6 Bus1=1503 Bus2=1652 phases=3 Linecode=2c_.04 Length=28.18889 Units=m
New Line.LINECmpd_7 Bus1=97 Bus2=214 phases=3 Linecode=2c_.04 Length=8.176881 Units=m
New Line.LINECmpd_8 Bus1=1988 Bus2=2300 phases=3 Linecode=35_SAC_PC Length=18.56925 Units=m
New Line.LINECmpd_9 Bus1=2276 Bus2=2633 phases=3 Linecode=2c_.04 Length=13.96667 Units=m
New Line.LINECmpd_10 Bus1=483 Bus2=854 phases=3 Linecode=3c_.04 Length=12.477526 Units=m
New Line.LINECmpd_11 Bus1=1938 Bus2=2005 phases=3 Linecode=2c_.04 Length=2.10284 Units=m
New Line.LINECmpd_12 Bus1=935 Bus2=1128 phases=3 Linecode=4c_.06 Length=12.20198 Units=m
New Line.LINECmpd_13 Bus1=2259 Bus2=2672 phases=3 Linecode=2c_.04 Length=12.408518 Units=m
New Line.LINECmpd_14 Bus1=424 Bus2=713 phases=3 Linecode=2c_.04 Length=10.25 Units=m
New Line.LINECmpd_15 Bus1=1786 Bus2=1995 phases=3 Linecode=4c_.06 Length=31.4584 Units=m
New Line.LINECmpd_16 Bus1=2173 Bus2=2340 phases=3 Linecode=2c_.04 Length=2.59007 Units=m
New Line.LINECmpd_17 Bus1=1734 Bus2=1777 phases=3 Linecode=4c_.25 Length=28.52089 Units=m
New Line.LINECmpd_18 Bus1=2402 Bus2=2641 phases=3 Linecode=2c_.04 Length=15.434 Units=m
New Line.LINECmpd_19 Bus1=294 Bus2=534 phases=3 Linecode=2c_.04 Length=8.36087 Units=m
New Line.LINECmpd_20 Bus1=1673 Bus2=1764 phases=3 Linecode=25_SAC_XC Length=18.876806 Units=m
New Line.LINECmpd_21 Bus1=2010 Bus2=2310 phases=3 Linecode=4c_.06 Length=35.27425 Units=m
New Line.LINECmpd_22 Bus1=2074 Bus2=2347 phases=3 Linecode=2c_.04 Length=4.606217 Units=m
New Line.LINECmpd_23 Bus1=211 Bus2=251 phases=3 Linecode=2c_.04 Length=16.4452 Units=m
New Line.LINECmpd_24 Bus1=1593 Bus2=1678 phases=3 Linecode=2c_.04 Length=12.09514 Units=m
New Line.LINECmpd_25 Bus1=2637 Bus2=2700 phases=3 Linecode=2c_.04 Length=1.042303 Units=m
New Line.LINECmpd_26 Bus1=635 Bus2=1297 phases=3 Linecode=4c_.25 Length=45.35888 Units=m
New Line.LINECmpd_27 Bus1=1147 Bus2=1235 phases=3 Linecode=2c_.04 Length=5.938147 Units=m
New Line.LINECmpd_28 Bus1=2398 Bus2=2560 phases=3 Linecode=2c_.04 Length=4.48688 Units=m
New Line.LINECmpd_29 Bus1=1357 Bus2=1446 phases=3 Linecode=4c_.06 Length=11.04726 Units=m
New Line.LINECmpd_30 Bus1=53 Bus2=92 phases=3 Linecode=4c_.25 Length=59.2901 Units=m
New Line.LINECmpd_31 Bus1=2347 Bus2=2671 phases=3 Linecode=2c_.04 Length=7.597821 Units=m
New Line.LINECmpd_32 Bus1=1297 Bus2=1540 phases=3 Linecode=4c_.25 Length=32.711346 Units=m
New Line.LINECmpd_33 Bus1=338 Bus2=505 phases=3 Linecode=2c_.04 Length=2.76944 Units=m
New Line.LINECmpd_34 Bus1=1210 Bus2=1357 phases=3 Linecode=4c_.6 Length=14.27327 Units=m
New Line.LINECmpd_35 Bus1=668 Bus2=1050 phases=3 Linecode=2c_.04 Length=21.70948 Units=m
New Line.LINECmpd_36 Bus1=1476 Bus2=1696 phases=3 Linecode=2c_.04 Length=20.396941 Units=m
New Line.LINECmpd_37 Bus1=2784 Bus2=2837 phases=3 Linecode=2c_.04 Length=13.55912 Units=m
New Line.LINECmpd_38 Bus1=2682 Bus2=2787 phases=3 Linecode=2c_.04 Length=13.903718 Units=m
New Line.LINECmpd_39 Bus1=604 Bus2=842 phases=3 Linecode=2c_.04 Length=16.91687 Units=m
New Line.LINECmpd_40 Bus1=1 Bus2=32 phases=3 Linecode=3c_300_SAC_XC Length=42.202959 Units=m
New Line.LINECmpd_41 Bus1=1475 Bus2=1676 phases=3 Linecode=2c_.04 Length=19.99679 Units=m
New Line.LINECmpd_42 Bus1=2005 Bus2=2243 phases=3 Linecode=2c_.04 Length=12.28058 Units=m
New Line.LINECmpd_43 Bus1=2074 Bus2=2259 phases=3 Linecode=2c_.04 Length=6.213506 Units=m
New Line.LINECmpd_44 Bus1=2582 Bus2=2729 phases=3 Linecode=2c_.04 Length=13.18678 Units=m
New Line.LINECmpd_45 Bus1=1342 Bus2=1408 phases=3 Linecode=2c_.04 Length=12.71498 Units=m
New Line.LINECmpd_46 Bus1=2711 Bus2=2797 phases=3 Linecode=2c_.04 Length=6.700505 Units=m
New Line.LINECmpd_47 Bus1=494 Bus2=778 phases=3 Linecode=2c_.04 Length=13.20678 Units=m
New Line.LINECmpd_48 Bus1=524 Bus2=924 phases=3 Linecode=4c_.06 Length=28.87262 Units=m
New Line.LINECmpd_49 Bus1=1889 Bus2=2110 phases=3 Linecode=2c_.04 Length=14.433883 Units=m
New Line.LINECmpd_50 Bus1=1777 Bus2=2121 phases=3 Linecode=4c_.06 Length=46.654258 Units=m
New Line.LINECmpd_51 Bus1=56 Bus2=96 phases=3 Linecode=2c_.04 Length=4.99077 Units=m
New Line.LINECmpd_52 Bus1=2671 Bus2=2824 phases=3 Linecode=2c_.04 Length=14.721552 Units=m
New Line.LINECmpd_53 Bus1=812 Bus2=1101 phases=3 Linecode=2c_.04 Length=16.53181 Units=m
New Line.LINECmpd_54 Bus1=1835 Bus2=1938 phases=3 Linecode=2c_.04 Length=13.31919 Units=m
New Line.LINECmpd_55 Bus1=2340 Bus2=2581 phases=3 Linecode=2c_.04 Length=8.82803 Units=m
New Line.LINECmpd_56 Bus1=1359 Bus2=1469 phases=3 Linecode=2c_.04 Length=7.257082 Units=m
New Line.LINECmpd_57 Bus1=1424 Bus2=1626 phases=3 Linecode=2c_.04 Length=22.489367 Units=m
New Line.LINECmpd_58 Bus1=939 Bus2=1110 phases=3 Linecode=4c_.06 Length=43.0851 Units=m
New Line.LINECmpd_59 Bus1=218 Bus2=481 phases=3 Linecode=2c_.04 Length=12.162069 Units=m
New Line.LINECmpd_60 Bus1=639 Bus2=824 phases=3 Linecode=2c_.04 Length=11.0374 Units=m
New Line.LINECmpd_61 Bus1=1799 Bus2=1956 phases=3 Linecode=2c_.04 Length=6.905779 Units=m
New Line.LINECmpd_62 Bus1=577 Bus2=812 phases=3 Linecode=2c_.04 Length=10.63079 Units=m
New Line.LINECmpd_63 Bus1=992 Bus2=1097 phases=3 Linecode=2c_.04 Length=11.84913 Units=m
New Line.LINECmpd_64 Bus1=1097 Bus2=1238 phases=3 Linecode=2c_.04 Length=6.833733 Units=m
New Line.LINECmpd_65 Bus1=240 Bus2=504 phases=3 Linecode=4c_.06 Length=30.85629 Units=m
New Line.LINECmpd_66 Bus1=1128 Bus2=1342 phases=3 Linecode=2c_.04 Length=21.175557 Units=m
New Line.LINECmpd_67 Bus1=214 Bus2=352 phases=3 Linecode=2c_.04 Length=14.89157 Units=m
New Line.LINECmpd_68 Bus1=592 Bus2=921 phases=3 Linecode=2c_.04 Length=13.02968 Units=m
New Line.LINECmpd_69 Bus1=565 Bus2=920 phases=3 Linecode=2c_.04 Length=11.08135 Units=m
New Line.LINECmpd_70 Bus1=205 Bus2=434 phases=3 Linecode=2c_.04 Length=12.02879 Units=m
New Line.LINECmpd_71 Bus1=198 Bus2=338 phases=3 Linecode=2c_.04 Length=6.53371 Units=m
New Line.LINECmpd_72 Bus1=1386 Bus2=1552 phases=3 Linecode=2c_.04 Length=18.655965 Units=m
New Line.LINECmpd_73 Bus1=2502 Bus2=2651 phases=3 Linecode=4c_.06 Length=9.16606 Units=m
New Line.LINECmpd_74 Bus1=56 Bus2=97 phases=3 Linecode=2c_.04 Length=7.3354 Units=m
New Line.LINECmpd_75 Bus1=2180 Bus2=2438 phases=3 Linecode=25_SAC_XC Length=8.37153 Units=m
New Line.LINECmpd_76 Bus1=1739 Bus2=1801 phases=3 Linecode=2c_.04 Length=3.530112 Units=m
New Line.LINECmpd_77 Bus1=2601 Bus2=2755 phases=3 Linecode=2c_.04 Length=11.96001 Units=m
New Line.LINECmpd_78 Bus1=151 Bus2=218 phases=3 Linecode=2c_.04 Length=5.561817 Units=m
New Line.LINECmpd_79 Bus1=2237 Bus2=2513 phases=3 Linecode=35_SAC_PC Length=15.591467 Units=m
New Line.LINECmpd_80 Bus1=1886 Bus2=1988 phases=3 Linecode=3c_95_SAC_XC Length=8.41393 Units=m
New Line.LINECmpd_81 Bus1=151 Bus2=205 phases=3 Linecode=2c_.04 Length=3.39014 Units=m
New Line.LINECmpd_82 Bus1=1235 Bus2=1319 phases=3 Linecode=2c_.04 Length=11.54806 Units=m
New Line.LINECmpd_83 Bus1=2310 Bus2=2502 phases=3 Linecode=4c_.06 Length=7.32675 Units=m
New Line.LINECmpd_84 Bus1=528 Bus2=667 phases=3 Linecode=2c_.04 Length=3.36087 Units=m
New Line.LINECmpd_85 Bus1=1260 Bus2=1417 phases=3 Linecode=4c_.06 Length=19.90191 Units=m
New Line.LINECmpd_86 Bus1=2027 Bus2=2276 phases=3 Linecode=2c_.04 Length=4.395059 Units=m
New Line.LINECmpd_87 Bus1=131 Bus2=243 phases=3 Linecode=2c_.04 Length=8.544922 Units=m
New Line.LINECmpd_88 Bus1=1675 Bus2=1741 phases=3 Linecode=2c_.04 Length=20.74307 Units=m
New Line.LINECmpd_89 Bus1=1101 Bus2=1268 phases=3 Linecode=2c_.04 Length=15.32595 Units=m
New Line.LINECmpd_90 Bus1=703 Bus2=874 phases=3 Linecode=16_PSC Length=1.24032 Units=m
New Line.LINECmpd_91 Bus1=2346 Bus2=2586 phases=3 Linecode=25_PSC Length=6.86164 Units=m
New Line.LINECmpd_92 Bus1=2033 Bus2=2328 phases=3 Linecode=35_SAC_PC Length=16.96801 Units=m
New Line.LINECmpd_93 Bus1=2228 Bus2=2457 phases=3 Linecode=2c_.04 Length=5.62145 Units=m
New Line.LINECmpd_94 Bus1=2033 Bus2=2298 phases=3 Linecode=35_SAC_PC Length=17.49655 Units=m
New Line.LINECmpd_95 Bus1=2700 Bus2=2810 phases=3 Linecode=2c_.04 Length=6.739836 Units=m
New Line.LINECmpd_96 Bus1=528 Bus2=668 phases=3 Linecode=2c_.04 Length=4.91212 Units=m
New Line.LINECmpd_97 Bus1=32 Bus2=53 phases=3 Linecode=4c_.25 Length=36.66384 Units=m
New Line.LINECmpd_98 Bus1=1110 Bus2=1210 phases=3 Linecode=4c_.06 Length=9.07449 Units=m
New Line.LINECmpd_99 Bus1=2457 Bus2=2601 phases=3 Linecode=2c_.04 Length=6.1587 Units=m
New Line.LINECmpd_100 Bus1=2033 Bus2=2180 phases=3 Linecode=3c_95_SAC_XC Length=12.06891 Units=m
New Line.LINECmpd_101 Bus1=469 Bus2=748 phases=3 Linecode=2c_.04 Length=13.84201 Units=m
New Line.LINECmpd_102 Bus1=2026 Bus2=2166 phases=3 Linecode=25_SAC_XC Length=2.17128 Units=m
New Line.LINECmpd_103 Bus1=842 Bus2=1156 phases=3 Linecode=2c_.04 Length=11.631718 Units=m
New Line.LINECmpd_104 Bus1=200 Bus2=265 phases=3 Linecode=2c_.04 Length=10.76208 Units=m
New Line.LINECmpd_105 Bus1=2165 Bus2=2471 phases=3 Linecode=2c_.04 Length=12.05257 Units=m
New Line.LINECmpd_106 Bus1=349 Bus2=524 phases=3 Linecode=4c_.25 Length=43.1503 Units=m
New Line.LINECmpd_107 Bus1=444 Bus2=679 phases=3 Linecode=2c_.04 Length=10.69284 Units=m
New Line.LINECmpd_108 Bus1=1815 Bus2=1926 phases=3 Linecode=2c_.04 Length=8.40575 Units=m
New Line.LINECmpd_109 Bus1=1886 Bus2=2051 phases=3 Linecode=4c_.25 Length=40.14348 Units=m
New Line.LINECmpd_110 Bus1=2727 Bus2=2784 phases=3 Linecode=2c_.04 Length=5.154998 Units=m
New Line.LINECmpd_111 Bus1=1956 Bus2=2251 phases=3 Linecode=2c_.04 Length=14.258843 Units=m
New Line.LINECmpd_112 Bus1=1801 Bus2=1944 phases=3 Linecode=2c_.04 Length=11.433594 Units=m
New Line.LINECmpd_113 Bus1=2167 Bus2=2517 phases=3 Linecode=2c_.04 Length=13.765399 Units=m
New Line.LINECmpd_114 Bus1=1040 Bus2=1239 phases=3 Linecode=2c_.04 Length=13.99061 Units=m
New Line.LINECmpd_115 Bus1=2560 Bus2=2781 phases=3 Linecode=2c_.04 Length=12.69684 Units=m
New Line.LINECmpd_116 Bus1=331 Bus2=425 phases=3 Linecode=2c_.04 Length=15.40438 Units=m
New Line.LINECmpd_117 Bus1=329 Bus2=444 phases=3 Linecode=2c_.04 Length=5.60603 Units=m
New Line.LINECmpd_118 Bus1=2051 Bus2=2286 phases=3 Linecode=4c_.25 Length=21.65475 Units=m
New Line.LINECmpd_119 Bus1=2296 Bus2=2469 phases=3 Linecode=35_SAC_PC Length=15.84052 Units=m
New Line.LINECmpd_120 Bus1=142 Bus2=198 phases=3 Linecode=4c_.25 Length=32.18982 Units=m
New Line.LINECmpd_121 Bus1=265 Bus2=296 phases=3 Linecode=2c_.04 Length=8.1226 Units=m
New Line.LINECmpd_122 Bus1=534 Bus2=855 phases=3 Linecode=2c_.04 Length=11.61301 Units=m
New Line.LINECmpd_123 Bus1=1260 Bus2=1386 phases=3 Linecode=2c_.04 Length=13.66641 Units=m
New Line.LINECmpd_124 Bus1=2341 Bus2=2582 phases=3 Linecode=2c_.04 Length=9.93371 Units=m
New Line.LINECmpd_125 Bus1=2727 Bus2=2778 phases=3 Linecode=2c_.04 Length=2.4177 Units=m
New Line.LINECmpd_126 Bus1=2166 Bus2=2472 phases=3 Linecode=25_SAC_XC Length=12.88521 Units=m
New Line.LINECmpd_127 Bus1=368 Bus2=494 phases=3 Linecode=2c_.04 Length=5.801291 Units=m
New Line.LINECmpd_128 Bus1=243 Bus2=433 phases=3 Linecode=2c_.04 Length=14.001 Units=m
New Line.LINECmpd_129 Bus1=329 Bus2=424 phases=3 Linecode=2c_.04 Length=3.14004 Units=m
New Line.LINECmpd_130 Bus1=2346 Bus2=2603 phases=3 Linecode=2c_.04 Length=13.111895 Units=m
New Line.LINECmpd_131 Bus1=1128 Bus2=1260 phases=3 Linecode=4c_.06 Length=12.09358 Units=m
New Line.LINECmpd_132 Bus1=2310 Bus2=2398 phases=3 Linecode=2c_.04 Length=11.9089 Units=m
New Line.LINECmpd_133 Bus1=1789 Bus2=1929 phases=3 Linecode=2c_.04 Length=12.191618 Units=m
New Line.LINECmpd_134 Bus1=2180 Bus2=2237 phases=3 Linecode=3c_95_SAC_XC Length=7.0058 Units=m
New Line.LINECmpd_135 Bus1=2559 Bus2=2759 phases=3 Linecode=2c_.04 Length=13.67486 Units=m
New Line.LINECmpd_136 Bus1=529 Bus2=935 phases=3 Linecode=4c_.06 Length=41.707605 Units=m
New Line.LINECmpd_137 Bus1=1156 Bus2=1322 phases=3 Linecode=2c_.04 Length=13.804816 Units=m
New Line.LINECmpd_138 Bus1=2121 Bus2=2173 phases=3 Linecode=2c_.04 Length=14.3362 Units=m
New Line.LINECmpd_139 Bus1=2581 Bus2=2753 phases=3 Linecode=2c_.04 Length=13.14925 Units=m
New Line.LINECmpd_140 Bus1=868 Bus2=1021 phases=3 Linecode=2c_.04 Length=9.16643 Units=m
New Line.LINECmpd_141 Bus1=667 Bus2=1002 phases=3 Linecode=2c_.04 Length=21.84471 Units=m
New Line.LINECmpd_142 Bus1=201 Bus2=412 phases=3 Linecode=2c_.04 Length=11.72995 Units=m
New Line.LINECmpd_143 Bus1=2015 Bus2=2183 phases=3 Linecode=35_SAC_PC Length=16.54472 Units=m
New Line.LINECmpd_144 Bus1=338 Bus2=483 phases=3 Linecode=3c_.04 Length=6.648323 Units=m
New Line.LINECmpd_145 Bus1=1775 Bus2=1894 phases=3 Linecode=2c_.04 Length=15.130611 Units=m
New Line.LINECmpd_146 Bus1=2121 Bus2=2228 phases=3 Linecode=2c_.04 Length=13.04828 Units=m
New Line.LINECmpd_147 Bus1=505 Bus2=878 phases=3 Linecode=2c_.04 Length=11.264769 Units=m
New Line.LINECmpd_148 Bus1=1483 Bus2=1675 phases=3 Linecode=2c_.04 Length=6.126043 Units=m
New Line.LINECmpd_149 Bus1=2173 Bus2=2341 phases=3 Linecode=2c_.04 Length=4.45224 Units=m
New Line.LINECmpd_150 Bus1=240 Bus2=284 phases=3 Linecode=4c_.25 Length=18.4074 Units=m
New Line.LINECmpd_151 Bus1=635 Bus2=868 phases=3 Linecode=2c_.04 Length=11.11288 Units=m
New Line.LINECmpd_152 Bus1=609 Bus2=797 phases=3 Linecode=2c_.04 Length=10.82792 Units=m
New Line.LINECmpd_153 Bus1=1926 Bus2=2163 phases=3 Linecode=2c_.04 Length=13.72268 Units=m
New Line.LINECmpd_154 Bus1=1402 Bus2=1424 phases=3 Linecode=2c_.04 Length=7.0149 Units=m
New Line.LINECmpd_155 Bus1=2778 Bus2=2831 phases=3 Linecode=2c_.04 Length=14.82283 Units=m
New Line.LINECmpd_156 Bus1=951 Bus2=1192 phases=3 Linecode=2c_.04 Length=18.328435 Units=m
New Line.LINECmpd_157 Bus1=2502 Bus2=2637 phases=3 Linecode=2c_.04 Length=18.31578 Units=m
New Line.LINECmpd_158 Bus1=1643 Bus2=1673 phases=3 Linecode=25_SAC_XC Length=15.96494 Units=m
New Line.LINECmpd_159 Bus1=2026 Bus2=2165 phases=3 Linecode=2c_.04 Length=6.49895 Units=m
New Line.LINECmpd_160 Bus1=284 Bus2=331 phases=3 Linecode=4c_.25 Length=21.868 Units=m
New Line.LINECmpd_161 Bus1=1110 Bus2=1147 phases=3 Linecode=2c_.04 Length=14.7395 Units=m
New Line.LINECmpd_162 Bus1=198 Bus2=278 phases=3 Linecode=4c_.25 Length=21.46519 Units=m
New Line.LINECmpd_163 Bus1=1938 Bus2=2004 phases=3 Linecode=2c_.04 Length=6.24043 Units=m
New Line.LINECmpd_164 Bus1=1751 Bus2=1789 phases=3 Linecode=2c_.04 Length=6.58221 Units=m
New Line.LINECmpd_165 Bus1=251 Bus2=421 phases=3 Linecode=2c_.04 Length=21.82432 Units=m
New Line.LINECmpd_166 Bus1=703 Bus2=873 phases=3 Linecode=2c_.04 Length=19.83383 Units=m
New Line.LINECmpd_167 Bus1=2641 Bus2=2754 phases=3 Linecode=2c_.04 Length=11.31091 Units=m
New Line.LINECmpd_168 Bus1=1603 Bus2=1679 phases=3 Linecode=2c_.04 Length=7.402634 Units=m
New Line.LINECmpd_169 Bus1=1360 Bus2=1449 phases=3 Linecode=2c_.04 Length=13.0204 Units=m
New Line.LINECmpd_170 Bus1=1835 Bus2=1886 phases=3 Linecode=4c_.25 Length=6.7821 Units=m
New Line.LINECmpd_171 Bus1=991 Bus2=1211 phases=3 Linecode=2c_.04 Length=13.65365 Units=m
New Line.LINECmpd_172 Bus1=2027 Bus2=2167 phases=3 Linecode=2c_.04 Length=7.82372 Units=m
New Line.LINECmpd_173 Bus1=2317 Bus2=2529 phases=3 Linecode=2c_.04 Length=8.854828 Units=m
New Line.LINECmpd_174 Bus1=425 Bus2=592 phases=3 Linecode=2c_.04 Length=1.401143 Units=m
New Line.LINECmpd_175 Bus1=1751 Bus2=1799 phases=3 Linecode=2c_.04 Length=2.18848 Units=m
New Line.LINECmpd_176 Bus1=1739 Bus2=1775 phases=3 Linecode=2c_.04 Length=9.071212 Units=m
New Line.LINECmpd_177 Bus1=1548 Bus2=1603 phases=3 Linecode=2c_.04 Length=8.6072 Units=m
New Line.LINECmpd_178 Bus1=2637 Bus2=2711 phases=3 Linecode=2c_.04 Length=2.510049 Units=m
New Line.LINECmpd_179 Bus1=1729 Bus2=1751 phases=3 Linecode=4c_.06 Length=13.4689 Units=m
New Line.LINECmpd_180 Bus1=1248 Bus2=1331 phases=3 Linecode=2c_.04 Length=7.522293 Units=m
New Line.LINECmpd_181 Bus1=2529 Bus2=2682 phases=3 Linecode=2c_.04 Length=7.601695 Units=m
New Line.LINECmpd_182 Bus1=2682 Bus2=2757 phases=3 Linecode=.04_PSC Length=6.6907 Units=m
New Line.LINECmpd_183 Bus1=96 Bus2=201 phases=3 Linecode=2c_.04 Length=8.15639 Units=m
New Line.LINECmpd_184 Bus1=92 Bus2=200 phases=3 Linecode=4c_.25 Length=25.57014 Units=m
New Line.LINECmpd_185 Bus1=669 Bus2=795 phases=3 Linecode=16_PSC Length=7.673 Units=m
New Line.LINECmpd_186 Bus1=2015 Bus2=2157 phases=3 Linecode=35_SAC_PC Length=16.5537 Units=m