New Line.LINE1 Bus1=1 Bus2=2 phases=3 Linecode=3c_300_SAC_XC Length=0.44359 Units=m
New Line.LINE2 Bus1=2 Bus2=3 phases=3 Linecode=3c_300_SAC_XC Length=0.038329 Units=m
New Line.LINE3 Bus1=3 Bus2=4 phases=3 Linecode=3c_300_SAC_XC Length=0.039115 Units=m
New Line.LINE4 Bus1=4 Bus2=5 phases=3 Linecode=3c_300_SAC_XC Length=0.038118 Units=m
New Line.LINE5 Bus1=5 Bus2=6 phases=3 Linecode=3c_300_SAC_XC Length=0.038602 Units=m
New Line.LINE6 Bus1=6 Bus2=7 phases=3 Linecode=3c_300_SAC_XC Length=0.038483 Units=m
New Line.LINE7 Bus1=7 Bus2=8 phases=3 Linecode=3c_300_SAC_XC Length=0.039408 Units=m
New Line.LINE8 Bus1=8 Bus2=9 phases=3 Linecode=3c_300_SAC_XC Length=0.03821 Units=m
New Line.LINE9 Bus1=9 Bus2=10 phases=3 Linecode=3c_300_SAC_XC Length=0.038834 Units=m
New Line.LINE10 Bus1=10 Bus2=11 phases=3 Linecode=3c_300_SAC_XC Length=0.67833 Units=m
New Line.LINE11 Bus1=11 Bus2=12 phases=3 Linecode=3c_300_SAC_XC Length=0.89525 Units=m
New Line.LINE12 Bus1=12 Bus2=13 phases=3 Linecode=3c_300_SAC_XC Length=0.25852 Units=m
New Line.LINE13 Bus1=13 Bus2=14 phases=3 Linecode=3c_300_SAC_XC Length=0.25726 Units=m
New Line.LINE14 Bus1=14 Bus2=15 phases=3 Linecode=3c_300_SAC_XC Length=0.25812 Units=m
New Line.LINE15 Bus1=15 Bus2=16 phases=3 Linecode=3c_300_SAC_XC Length=0.25767 Units=m
New Line.LINE16 Bus1=16 Bus2=17 phases=3 Linecode=3c_300_SAC_XC Length=0.2583 Units=m
New Line.LINE17 Bus1=17 Bus2=18 phases=3 Linecode=3c_300_SAC_XC Length=3.6805 Units=m
New Line.LINE18 Bus1=18 Bus2=19 phases=3 Linecode=3c_300_SAC_XC Length=0.27293 Units=m
New Line.LINE19 Bus1=19 Bus2=20 phases=3 Linecode=3c_300_SAC_XC Length=0.27242 Units=m
New Line.LINE20 Bus1=20 Bus2=21 phases=3 Linecode=3c_300_SAC_XC Length=0.65867 Units=m
New Line.LINE21 Bus1=21 Bus2=22 phases=3 Linecode=3c_300_SAC_XC Length=0.18811 Units=m
New Line.LINE22 Bus1=22 Bus2=23 phases=3 Linecode=3c_300_SAC_XC Length=0.18645 Units=m
New Line.LINE23 Bus1=23 Bus2=24 phases=3 Linecode=3c_300_SAC_XC Length=0.23089 Units=m
New Line.LINE24 Bus1=24 Bus2=25 phases=3 Linecode=3c_300_SAC_XC Length=0.26314 Units=m
New Line.LINE25 Bus1=25 Bus2=26 phases=3 Linecode=3c_300_SAC_XC Length=29.9951 Units=m
New Line.LINE26 Bus1=26 Bus2=27 phases=3 Linecode=3c_300_SAC_XC Length=0.95847 Units=m
New Line.LINE27 Bus1=27 Bus2=28 phases=3 Linecode=3c_300_SAC_XC Length=0.3904 Units=m
New Line.LINE28 Bus1=28 Bus2=29 phases=3 Linecode=3c_300_SAC_XC Length=0.39102 Units=m
New Line.LINE29 Bus1=29 Bus2=30 phases=3 Linecode=3c_300_SAC_XC Length=0.18681 Units=m
New Line.LINE30 Bus1=30 Bus2=31 phases=3 Linecode=3c_300_SAC_XC Length=0.34318 Units=m
New Line.LINE31 Bus1=31 Bus2=32 phases=3 Linecode=3c_300_SAC_XC Length=0.56873 Units=m
New Line.LINE32 Bus1=32 Bus2=33 phases=3 Linecode=4c_.25 Length=1.5571 Units=m
New Line.LINE34 Bus1=33 Bus2=35 phases=3 Linecode=4c_.25 Length=7.5169 Units=m
New Line.LINE36 Bus1=35 Bus2=37 phases=3 Linecode=4c_.25 Length=1.1775 Units=m
New Line.LINE38 Bus1=37 Bus2=39 phases=3 Linecode=4c_.25 Length=0.406 Units=m
New Line.LINE40 Bus1=39 Bus2=41 phases=3 Linecode=4c_.25 Length=0.38134 Units=m
New Line.LINE42 Bus1=41 Bus2=43 phases=3 Linecode=4c_.25 Length=0.41665 Units=m
New Line.LINE44 Bus1=43 Bus2=45 phases=3 Linecode=4c_.25 Length=0.2658 Units=m
New Line.LINE46 Bus1=45 Bus2=47 phases=3 Linecode=4c_.25 Length=0.2377 Units=m
New Line.LINE48 Bus1=47 Bus2=49 phases=3 Linecode=4c_.25 Length=0.23755 Units=m
New Line.LINE50 Bus1=49 Bus2=51 phases=3 Linecode=4c_.25 Length=1.0978 Units=m
New Line.LINE52 Bus1=51 Bus2=53 phases=3 Linecode=4c_.25 Length=23.3695 Units=m
New Line.LINE55 Bus1=53 Bus2=56 phases=3 Linecode=2c_.04 Length=6.7095 Units=m
New Line.LINE101 Bus1=96 Bus2=102 phases=3 Linecode=2c_.04 Length=3.3635 Units=m
New Line.LINE103 Bus1=97 Bus2=104 phases=3 Linecode=2c_.04 Length=4.0329 Units=m
New Line.LINE130 Bus1=123 Bus2=131 phases=3 Linecode=2c_.04 Length=7.2512 Units=m
New Line.LINE140 Bus1=131 Bus2=141 phases=3 Linecode=2c_.04 Length=4.6693 Units=m
New Line.LINE150 Bus1=142 Bus2=151 phases=3 Linecode=2c_.04 Length=6.0658 Units=m
New Line.LINE207 Bus1=198 Bus2=208 phases=3 Linecode=4c_.25 Length=4.3073 Units=m
New Line.LINE210 Bus1=200 Bus2=211 phases=3 Linecode=4c_.25 Length=11.0652 Units=m
New Line.LINE211 Bus1=201 Bus2=212 phases=3 Linecode=2c_.04 Length=4.0654 Units=m
New Line.LINE216 Bus1=205 Bus2=217 phases=3 Linecode=2c_.04 Length=4.0018 Units=m
New Line.LINE220 Bus1=208 Bus2=221 phases=3 Linecode=4c_.25 Length=0.98109 Units=m
New Line.LINE227 Bus1=214 Bus2=228 phases=3 Linecode=2c_.04 Length=4.2218 Units=m
New Line.LINE231 Bus1=218 Bus2=232 phases=3 Linecode=2c_.04 Length=4.2077 Units=m
New Line.LINE234 Bus1=221 Bus2=235 phases=3 Linecode=4c_.25 Length=4.282 Units=m
New Line.LINE247 Bus1=235 Bus2=248 phases=3 Linecode=4c_.25 Length=5.9319 Units=m
New Line.LINE257 Bus1=243 Bus2=258 phases=3 Linecode=2c_.04 Length=5.0758 Units=m
New Line.LINE262 Bus1=248 Bus2=263 phases=3 Linecode=4c_.25 Length=1.3413 Units=m
New Line.LINE266 Bus1=251 Bus2=267 phases=3 Linecode=2c_.04 Length=6.7974 Units=m
New Line.LINE277 Bus1=263 Bus2=278 phases=3 Linecode=4c_.25 Length=4.6216 Units=m
New Line.LINE280 Bus1=265 Bus2=281 phases=3 Linecode=2c_.04 Length=2.815 Units=m
New Line.LINE293 Bus1=278 Bus2=294 phases=3 Linecode=2c_.04 Length=7.5007 Units=m
New Line.LINE309 Bus1=294 Bus2=310 phases=3 Linecode=2c_.04 Length=2.467 Units=m
New Line.LINE348 Bus1=331 Bus2=349 phases=3 Linecode=4c_.25 Length=3.9607 Units=m
New Line.LINE367 Bus1=349 Bus2=368 phases=3 Linecode=2c_.04 Length=4.3534 Units=m
New Line.LINE440 Bus1=421 Bus2=441 phases=3 Linecode=2c_.04 Length=8.22 Units=m
New Line.LINE441 Bus1=421 Bus2=442 phases=3 Linecode=2c_.04 Length=3.4826 Units=m
New Line.LINE445 Bus1=424 Bus2=446 phases=3 Linecode=2c_.04 Length=4.5578 Units=m
New Line.LINE464 Bus1=444 Bus2=465 phases=3 Linecode=2c_.04 Length=4.384 Units=m
New Line.LINE492 Bus1=469 Bus2=493 phases=3 Linecode=2c_25 Length=5.3207 Units=m
New Line.LINE506 Bus1=483 Bus2=507 phases=3 Linecode=3c_.04 Length=3.5235 Units=m
New Line.LINE517 Bus1=494 Bus2=518 phases=3 Linecode=2c_25 Length=6.9692 Units=m
New Line.LINE527 Bus1=504 Bus2=528 phases=3 Linecode=2c_.04 Length=7.2537 Units=m
New Line.LINE528 Bus1=504 Bus2=529 phases=3 Linecode=4c_.06 Length=1.6403 Units=m
New Line.LINE530 Bus1=505 Bus2=531 phases=3 Linecode=3c_.04 Length=5.3906 Units=m
New Line.LINE559 Bus1=534 Bus2=560 phases=3 Linecode=2c_.04 Length=4.8635 Units=m
New Line.LINE589 Bus1=565 Bus2=590 phases=3 Linecode=2c_.04 Length=3.7153 Units=m
New Line.LINE603 Bus1=577 Bus2=604 phases=3 Linecode=4c_.25 Length=4.3797 Units=m
New Line.LINE619 Bus1=592 Bus2=620 phases=3 Linecode=2c_.04 Length=4.7061 Units=m
New Line.LINE634 Bus1=604 Bus2=635 phases=3 Linecode=4c_.25 Length=11.0783 Units=m
New Line.LINE638 Bus1=609 Bus2=639 phases=3 Linecode=4c_.04 Length=1.1767 Units=m
New Line.LINE668 Bus1=639 Bus2=669 phases=3 Linecode=4c_.04 Length=7.8365 Units=m
New Line.LINE699 Bus1=667 Bus2=700 phases=3 Linecode=2c_.04 Length=5.4667 Units=m
New Line.LINE701 Bus1=668 Bus2=702 phases=3 Linecode=2c_.04 Length=4.8917 Units=m
New Line.LINE702 Bus1=669 Bus2=703 phases=3 Linecode=16_PSC Length=7.7524 Units=m
New Line.LINE821 Bus1=795 Bus2=822 phases=3 Linecode=16_PSC Length=4.5613 Units=m
New Line.LINE822 Bus1=795 Bus2=823 phases=3 Linecode=16_PSC Length=4.5613 Units=m
New Line.LINE839 Bus1=812 Bus2=840 phases=3 Linecode=2c_.04 Length=2.5106 Units=m
New Line.LINE865 Bus1=842 Bus2=866 phases=3 Linecode=2c_.04 Length=5.6608 Units=m
New Line.LINE889 Bus1=868 Bus2=890 phases=3 Linecode=2c_.04 Length=4.2233 Units=m
New Line.LINE895 Bus1=874 Bus2=896 phases=3 Linecode=16_PSC Length=2.5914 Units=m
New Line.LINE896 Bus1=874 Bus2=897 phases=3 Linecode=16_PSC Length=2.5914 Units=m
New Line.LINE938 Bus1=924 Bus2=939 phases=3 Linecode=4c_.06 Length=3.6813 Units=m
New Line.LINE940 Bus1=924 Bus2=941 phases=3 Linecode=2c_.04 Length=7.9167 Units=m
New Line.LINE950 Bus1=935 Bus2=951 phases=3 Linecode=2c_.04 Length=13.2093 Units=m
New Line.LINE955 Bus1=939 Bus2=956 phases=3 Linecode=4c_.06 Length=6.9605 Units=m
New Line.LINE957 Bus1=941 Bus2=958 phases=3 Linecode=2c_.04 Length=5.1934 Units=m
New Line.LINE967 Bus1=951 Bus2=968 phases=3 Linecode=2c_.04 Length=5.0257 Units=m
New Line.LINE973 Bus1=956 Bus2=974 phases=3 Linecode=4c_.06 Length=4.4292 Units=m
New Line.LINE974 Bus1=956 Bus2=975 phases=3 Linecode=4c_.06 Length=11.3411 Units=m
New Line.LINE990 Bus1=974 Bus2=991 phases=3 Linecode=2c_.04 Length=8.3175 Units=m
New Line.LINE991 Bus1=974 Bus2=992 phases=3 Linecode=4c_.06 Length=15.1499 Units=m
New Line.LINE993 Bus1=975 Bus2=994 phases=3 Linecode=4c_.06 Length=2.3398 Units=m
New Line.LINE1011 Bus1=991 Bus2=1012 phases=3 Linecode=2c_.04 Length=5.2332 Units=m
New Line.LINE1012 Bus1=992 Bus2=1013 phases=3 Linecode=2c_.04 Length=2.0755 Units=m
New Line.LINE1015 Bus1=994 Bus2=1016 phases=3 Linecode=4c_.06 Length=0.17626 Units=m
New Line.LINE1024 Bus1=1002 Bus2=1025 phases=3 Linecode=2c_.04 Length=5.9953 Units=m
New Line.LINE1025 Bus1=1002 Bus2=1026 phases=3 Linecode=2c_.04 Length=5.9953 Units=m
New Line.LINE1036 Bus1=1013 Bus2=1037 phases=3 Linecode=2c_.04 Length=0.24402 Units=m
New Line.LINE1039 Bus1=1016 Bus2=1040 phases=3 Linecode=4c_.06 Length=2.5538 Units=m
New Line.LINE1044 Bus1=1021 Bus2=1045 phases=3 Linecode=2c_.04 Length=6.3831 Units=m
New Line.LINE1045 Bus1=1021 Bus2=1046 phases=3 Linecode=2c_.04 Length=6.3831 Units=m
New Line.LINE1058 Bus1=1037 Bus2=1059 phases=3 Linecode=2c_.04 Length=0.25806 Units=m
New Line.LINE1061 Bus1=1040 Bus2=1062 phases=3 Linecode=2c_.04 Length=0.97417 Units=m
New Line.LINE1069 Bus1=1050 Bus2=1070 phases=3 Linecode=2c_.04 Length=5.3474 Units=m
New Line.LINE1070 Bus1=1050 Bus2=1071 phases=3 Linecode=2c_.04 Length=5.3474 Units=m
New Line.LINE1078 Bus1=1059 Bus2=1079 phases=3 Linecode=2c_.04 Length=0.25175 Units=m
New Line.LINE1081 Bus1=1062 Bus2=1082 phases=3 Linecode=2c_.04 Length=0.48473 Units=m
New Line.LINE1096 Bus1=1079 Bus2=1097 phases=3 Linecode=2c_.04 Length=9.0198 Units=m
New Line.LINE1098 Bus1=1082 Bus2=1099 phases=3 Linecode=2c_.04 Length=0.32199 Units=m
New Line.LINE1113 Bus1=1097 Bus2=1114 phases=3 Linecode=2c_.04 Length=5.3997 Units=m
New Line.LINE1115 Bus1=1099 Bus2=1116 phases=3 Linecode=2c_.04 Length=0.27115 Units=m
New Line.LINE1118 Bus1=1101 Bus2=1119 phases=3 Linecode=2c_.04 Length=3.895 Units=m
New Line.LINE1119 Bus1=1101 Bus2=1120 phases=3 Linecode=2c_.04 Length=3.895 Units=m
New Line.LINE1124 Bus1=1106 Bus2=1125 phases=3 Linecode=2c_.04 Length=5.937 Units=m
New Line.LINE1125 Bus1=1106 Bus2=1126 phases=3 Linecode=2c_.04 Length=5.937 Units=m
New Line.LINE1135 Bus1=1116 Bus2=1136 phases=3 Linecode=2c_.04 Length=1.0548 Units=m
New Line.LINE1152 Bus1=1136 Bus2=1153 phases=3 Linecode=2c_.04 Length=2.1528 Units=m
New Line.LINE1164 Bus1=1147 Bus2=1165 phases=3 Linecode=2c_.04 Length=4.1276 Units=m
New Line.LINE1170 Bus1=1153 Bus2=1171 phases=3 Linecode=2c_.04 Length=1.4199 Units=m
New Line.LINE1173 Bus1=1156 Bus2=1174 phases=3 Linecode=2c_.04 Length=4.9159 Units=m
New Line.LINE1185 Bus1=1171 Bus2=1186 phases=3 Linecode=2c_.04 Length=4.4648 Units=m
New Line.LINE1199 Bus1=1186 Bus2=1200 phases=3 Linecode=2c_.04 Length=1.4419 Units=m
New Line.LINE1212 Bus1=1200 Bus2=1213 phases=3 Linecode=2c_.04 Length=0.55458 Units=m
New Line.LINE1222 Bus1=1210 Bus2=1223 phases=3 Linecode=4c_.6 Length=1.3316 Units=m
New Line.LINE1225 Bus1=1213 Bus2=1226 phases=3 Linecode=2c_.04 Length=0.50522 Units=m
New Line.LINE1235 Bus1=1223 Bus2=1236 phases=3 Linecode=4c_.6 Length=0.86963 Units=m
New Line.LINE1238 Bus1=1226 Bus2=1239 phases=3 Linecode=2c_.04 Length=0.34457 Units=m
New Line.LINE1247 Bus1=1235 Bus2=1248 phases=3 Linecode=2c_.04 Length=7.6118 Units=m
New Line.LINE1249 Bus1=1236 Bus2=1250 phases=3 Linecode=4c_.6 Length=1.6778 Units=m
New Line.LINE1251 Bus1=1238 Bus2=1252 phases=3 Linecode=2c_.04 Length=2.3274 Units=m
New Line.LINE1252 Bus1=1238 Bus2=1253 phases=3 Linecode=2c_.04 Length=2.3274 Units=m
New Line.LINE1253 Bus1=1239 Bus2=1254 phases=3 Linecode=2c_.04 Length=8.006 Units=m
New Line.LINE1254 Bus1=1239 Bus2=1255 phases=3 Linecode=2c_.04 Length=8.006 Units=m
New Line.LINE1265 Bus1=1250 Bus2=1266 phases=3 Linecode=4c_.6 Length=1.0995 Units=m
New Line.LINE1271 Bus1=1260 Bus2=1272 phases=3 Linecode=4c_.06 Length=0.47116 Units=m
New Line.LINE1278 Bus1=1266 Bus2=1279 phases=3 Linecode=4c_.6 Length=0.85784 Units=m
New Line.LINE1280 Bus1=1268 Bus2=1281 phases=3 Linecode=2c_.04 Length=5.4981 Units=m
New Line.LINE1281 Bus1=1268 Bus2=1282 phases=3 Linecode=2c_.04 Length=5.4981 Units=m
New Line.LINE1286 Bus1=1272 Bus2=1287 phases=3 Linecode=4c_.06 Length=0.31622 Units=m
New Line.LINE1293 Bus1=1279 Bus2=1294 phases=3 Linecode=4c_.6 Length=1.0151 Units=m
New Line.LINE1298 Bus1=1287 Bus2=1299 phases=3 Linecode=4c_.06 Length=0.40701 Units=m
New Line.LINE1305 Bus1=1294 Bus2=1306 phases=3 Linecode=4c_.6 Length=1.8543 Units=m
New Line.LINE1308 Bus1=1297 Bus2=1309 phases=3 Linecode=4c_.04 Length=11.433 Units=m
New Line.LINE1311 Bus1=1299 Bus2=1312 phases=3 Linecode=4c_.06 Length=1.5325 Units=m
New Line.LINE1315 Bus1=1303 Bus2=1316 phases=3 Linecode=2c_.04 Length=6.8632 Units=m
New Line.LINE1316 Bus1=1303 Bus2=1317 phases=3 Linecode=2c_.04 Length=6.8632 Units=m
New Line.LINE1319 Bus1=1306 Bus2=1320 phases=3 Linecode=4c_.6 Length=1.5147 Units=m
New Line.LINE1326 Bus1=1312 Bus2=1327 phases=3 Linecode=4c_.06 Length=0.68889 Units=m
New Line.LINE1331 Bus1=1320 Bus2=1332 phases=3 Linecode=4c_.6 Length=1.6038 Units=m
New Line.LINE1333 Bus1=1322 Bus2=1334 phases=3 Linecode=2c_.04 Length=5.1168 Units=m
New Line.LINE1334 Bus1=1322 Bus2=1335 phases=3 Linecode=2c_.04 Length=5.1168 Units=m
New Line.LINE1339 Bus1=1327 Bus2=1340 phases=3 Linecode=4c_.06 Length=0.75527 Units=m
New Line.LINE1343 Bus1=1331 Bus2=1344 phases=3 Linecode=2c_.04 Length=3.3703 Units=m
New Line.LINE1344 Bus1=1331 Bus2=1345 phases=3 Linecode=2c_.04 Length=3.3703 Units=m
New Line.LINE1345 Bus1=1332 Bus2=1346 phases=3 Linecode=4c_.6 Length=1.4129 Units=m
New Line.LINE1351 Bus1=1340 Bus2=1352 phases=3 Linecode=4c_.06 Length=7.4086 Units=m
New Line.LINE1354 Bus1=1342 Bus2=1355 phases=3 Linecode=2c_.04 Length=3.7568 Units=m
New Line.LINE1356 Bus1=1346 Bus2=1357 phases=3 Linecode=4c_.6 Length=1.0361 Units=m
New Line.LINE1362 Bus1=1352 Bus2=1363 phases=3 Linecode=4c_.06 Length=3.1932 Units=m
New Line.LINE1366 Bus1=1357 Bus2=1367 phases=3 Linecode=4c_.06 Length=0.92195 Units=m
New Line.LINE1368 Bus1=1359 Bus2=1369 phases=3 Linecode=2c_.04 Length=6.5888 Units=m
New Line.LINE1370 Bus1=1360 Bus2=1371 phases=3 Linecode=2c_.04 Length=5.1502 Units=m
New Line.LINE1374 Bus1=1363 Bus2=1375 phases=3 Linecode=4c_.06 Length=0.92159 Units=m
New Line.LINE1379 Bus1=1367 Bus2=1380 phases=3 Linecode=4c_.06 Length=0.62522 Units=m
New Line.LINE1384 Bus1=1375 Bus2=1385 phases=3 Linecode=4c_.06 Length=0.50904 Units=m
New Line.LINE1389 Bus1=1380 Bus2=1390 phases=3 Linecode=4c_.06 Length=0.7203 Units=m
New Line.LINE1394 Bus1=1385 Bus2=1395 phases=3 Linecode=4c_.06 Length=1.1883 Units=m
New Line.LINE1396 Bus1=1386 Bus2=1397 phases=3 Linecode=2c_.04 Length=3.2571 Units=m
New Line.LINE1400 Bus1=1390 Bus2=1401 phases=3 Linecode=4c_.06 Length=0.11597 Units=m
New Line.LINE1405 Bus1=1395 Bus2=1406 phases=3 Linecode=4c_.06 Length=0.91823 Units=m
New Line.LINE1410 Bus1=1401 Bus2=1411 phases=3 Linecode=4c_.06 Length=2.9302 Units=m
New Line.LINE1412 Bus1=1402 Bus2=1413 phases=3 Linecode=2c_.04 Length=3.4625 Units=m
New Line.LINE1416 Bus1=1406 Bus2=1417 phases=3 Linecode=4c_.06 Length=1.5919 Units=m
New Line.LINE1418 Bus1=1408 Bus2=1419 phases=3 Linecode=2c_.04 Length=4.4401 Units=m
New Line.LINE1419 Bus1=1408 Bus2=1420 phases=3 Linecode=2c_.04 Length=4.4401 Units=m
New Line.LINE1422 Bus1=1411 Bus2=1423 phases=3 Linecode=4c_.06 Length=0.59832 Units=m
New Line.LINE1427 Bus1=1417 Bus2=1428 phases=3 Linecode=2c_.04 Length=0.86923 Units=m
New Line.LINE1433 Bus1=1423 Bus2=1434 phases=3 Linecode=4c_.06 Length=2.3205 Units=m
New Line.LINE1435 Bus1=1424 Bus2=1436 phases=3 Linecode=2c_.04 Length=4.3498 Units=m
New Line.LINE1439 Bus1=1428 Bus2=1440 phases=3 Linecode=2c_.04 Length=5.2926 Units=m
New Line.LINE1445 Bus1=1434 Bus2=1446 phases=3 Linecode=4c_.06 Length=2.8148 Units=m
New Line.LINE1451 Bus1=1440 Bus2=1452 phases=3 Linecode=2c_.04 Length=7.0102 Units=m
New Line.LINE1457 Bus1=1446 Bus2=1458 phases=3 Linecode=2c_.04 Length=6.9505 Units=m
New Line.LINE1466 Bus1=1458 Bus2=1467 phases=3 Linecode=2c_.04 Length=5.6817 Units=m
New Line.LINE1474 Bus1=1467 Bus2=1475 phases=3 Linecode=2c_.04 Length=0.49008 Units=m
New Line.LINE1475 Bus1=1467 Bus2=1476 phases=3 Linecode=2c_.04 Length=2.0999 Units=m
New Line.LINE1477 Bus1=1469 Bus2=1478 phases=3 Linecode=2c_.04 Length=6.0455 Units=m
New Line.LINE1485 Bus1=1475 Bus2=1486 phases=3 Linecode=3c_.04 Length=4.0441 Units=m
New Line.LINE1487 Bus1=1476 Bus2=1488 phases=3 Linecode=3c_.04 Length=3.2927 Units=m
New Line.LINE1513 Bus1=1503 Bus2=1514 phases=3 Linecode=2c_.04 Length=4.8397 Units=m
New Line.LINE1514 Bus1=1503 Bus2=1515 phases=3 Linecode=2c_.04 Length=7.2461 Units=m
New Line.LINE1547 Bus1=1540 Bus2=1548 phases=3 Linecode=4c_.04 Length=11.6486 Units=m
New Line.LINE1600 Bus1=1593 Bus2=1601 phases=3 Linecode=2c_.04 Length=4.121 Units=m
New Line.LINE1610 Bus1=1603 Bus2=1611 phases=3 Linecode=2c_.04 Length=3.7745 Units=m
New Line.LINE1680 Bus1=1673 Bus2=1681 phases=3 Linecode=25_SAC_XC Length=5.6849 Units=m
New Line.LINE1684 Bus1=1675 Bus2=1685 phases=3 Linecode=2c_.04 Length=4.092 Units=m
New Line.LINE1686 Bus1=1676 Bus2=1687 phases=3 Linecode=2c_.04 Length=2.6414 Units=m
New Line.LINE1688 Bus1=1679 Bus2=1689 phases=3 Linecode=2c_.04 Length=4.3083 Units=m
New Line.LINE1702 Bus1=1696 Bus2=1703 phases=3 Linecode=2c_.04 Length=3.5021 Units=m
New Line.LINE1733 Bus1=1729 Bus2=1734 phases=3 Linecode=4c_.25 Length=4.1446 Units=m
New Line.LINE1738 Bus1=1734 Bus2=1739 phases=3 Linecode=2c_.04 Length=6.0382 Units=m
New Line.LINE1781 Bus1=1775 Bus2=1782 phases=3 Linecode=2c_.04 Length=5.0161 Units=m
New Line.LINE1785 Bus1=1777 Bus2=1786 phases=3 Linecode=4c_.25 Length=13.6692 Units=m
New Line.LINE1796 Bus1=1789 Bus2=1797 phases=3 Linecode=2c_.04 Length=4.6746 Units=m
New Line.LINE1807 Bus1=1799 Bus2=1808 phases=3 Linecode=2c_.04 Length=2.9815 Units=m
New Line.LINE1810 Bus1=1801 Bus2=1811 phases=3 Linecode=2c_.04 Length=4.1446 Units=m
New Line.LINE1814 Bus1=1803 Bus2=1815 phases=3 Linecode=2c_.04 Length=6.1171 Units=m
New Line.LINE1901 Bus1=1889 Bus2=1902 phases=3 Linecode=2c_.04 Length=5.1606 Units=m
New Line.LINE1938 Bus1=1926 Bus2=1939 phases=3 Linecode=2c_.04 Length=3.3374 Units=m
New Line.LINE1968 Bus1=1956 Bus2=1969 phases=3 Linecode=2c_.04 Length=4.7033 Units=m
New Line.LINE2009 Bus1=1995 Bus2=2010 phases=3 Linecode=4c_.06 Length=3.1868 Units=m
New Line.LINE2018 Bus1=2004 Bus2=2019 phases=3 Linecode=3c_.04 Length=5.3502 Units=m
New Line.LINE2020 Bus1=2005 Bus2=2021 phases=3 Linecode=3c_.04 Length=3.3252 Units=m
New Line.LINE2026 Bus1=2010 Bus2=2027 phases=3 Linecode=2c_.04 Length=8.3027 Units=m
New Line.LINE2032 Bus1=2015 Bus2=2033 phases=3 Linecode=3c_95_SAC_XC Length=0.81763 Units=m
New Line.LINE2072 Bus1=2051 Bus2=2073 phases=3 Linecode=4c_.25 Length=2.199 Units=m
New Line.LINE2073 Bus1=2051 Bus2=2074 phases=3 Linecode=4c_.25 Length=15.6609 Units=m
New Line.LINE2095 Bus1=2073 Bus2=2096 phases=3 Linecode=4c_.25 Length=3.0794 Units=m
New Line.LINE2121 Bus1=2096 Bus2=2122 phases=3 Linecode=4c_.25 Length=4.6321 Units=m
New Line.LINE2148 Bus1=2122 Bus2=2149 phases=3 Linecode=4c_.25 Length=1.4624 Units=m
New Line.LINE2175 Bus1=2149 Bus2=2176 phases=3 Linecode=4c_.25 Length=0.2394 Units=m
New Line.LINE2189 Bus1=2165 Bus2=2190 phases=3 Linecode=2c_.04 Length=5.2738 Units=m
New Line.LINE2191 Bus1=2166 Bus2=2192 phases=3 Linecode=25_SAC_XC Length=6.0758 Units=m
New Line.LINE2193 Bus1=2167 Bus2=2194 phases=3 Linecode=2c_.04 Length=4.2738 Units=m
New Line.LINE2203 Bus1=2176 Bus2=2204 phases=3 Linecode=4c_.25 Length=0.97085 Units=m
New Line.LINE2229 Bus1=2204 Bus2=2230 phases=3 Linecode=4c_.25 Length=1.4398 Units=m
New Line.LINE2256 Bus1=2230 Bus2=2257 phases=3 Linecode=4c_.25 Length=2.2757 Units=m
New Line.LINE2265 Bus1=2237 Bus2=2266 phases=3 Linecode=3c_95_SAC_XC Length=4.9295 Units=m
New Line.LINE2278 Bus1=2251 Bus2=2279 phases=3 Linecode=2c_.04 Length=3.5743 Units=m
New Line.LINE2279 Bus1=2251 Bus2=2280 phases=3 Linecode=2c_.04 Length=3.5743 Units=m
New Line.LINE2285 Bus1=2257 Bus2=2286 phases=3 Linecode=4c_.25 Length=5.3561 Units=m
New Line.LINE2287 Bus1=2259 Bus2=2288 phases=3 Linecode=2c_.04 Length=4.0072 Units=m
New Line.LINE2295 Bus1=2266 Bus2=2296 phases=3 Linecode=3c_95_SAC_XC Length=1.1275 Units=m
New Line.LINE2305 Bus1=2276 Bus2=2306 phases=3 Linecode=2c_.04 Length=3.8839 Units=m
New Line.LINE2316 Bus1=2286 Bus2=2317 phases=3 Linecode=2c_.04 Length=13.2658 Units=m
New Line.LINE2325 Bus1=2296 Bus2=2326 phases=3 Linecode=35_SAC_PC Length=0.34812 Units=m
New Line.LINE2329 Bus1=2300 Bus2=2330 phases=3 Linecode=35_SAC_PC Length=4.4194 Units=m
New Line.LINE2345 Bus1=2317 Bus2=2346 phases=3 Linecode=2c_.04 Length=3.2062 Units=m
New Line.LINE2354 Bus1=2326 Bus2=2355 phases=3 Linecode=35_SAC_PC Length=0.297 Units=m
New Line.LINE2368 Bus1=2340 Bus2=2369 phases=3 Linecode=2c_.04 Length=4.5148 Units=m
New Line.LINE2370 Bus1=2341 Bus2=2371 phases=3 Linecode=2c_.04 Length=5.2818 Units=m
New Line.LINE2378 Bus1=2347 Bus2=2379 phases=3 Linecode=2c_.04 Length=3.6768 Units=m
New Line.LINE2387 Bus1=2355 Bus2=2388 phases=3 Linecode=35_SAC_PC Length=0.17863 Units=m
New Line.LINE2414 Bus1=2388 Bus2=2415 phases=3 Linecode=35_SAC_PC Length=0.81797 Units=m
New Line.LINE2428 Bus1=2402 Bus2=2429 phases=3 Linecode=2c_.04 Length=4.4318 Units=m
New Line.LINE2441 Bus1=2415 Bus2=2442 phases=3 Linecode=35_SAC_PC Length=6.2167 Units=m
New Line.LINE2463 Bus1=2438 Bus2=2464 phases=3 Linecode=25_SAC_XC Length=6.8433 Units=m
New Line.LINE2464 Bus1=2438 Bus2=2465 phases=3 Linecode=25_SAC_XC Length=6.8433 Units=m
New Line.LINE2468 Bus1=2442 Bus2=2469 phases=3 Linecode=35_SAC_PC Length=7.9821 Units=m
New Line.LINE2482 Bus1=2457 Bus2=2483 phases=3 Linecode=2c_.04 Length=4.9182 Units=m
New Line.LINE2493 Bus1=2469 Bus2=2494 phases=3 Linecode=35_SAC_PC Length=3.6023 Units=m
New Line.LINE2523 Bus1=2502 Bus2=2524 phases=3 Linecode=4c_.06 Length=2.4958 Units=m
New Line.LINE2534 Bus1=2513 Bus2=2535 phases=3 Linecode=35_SAC_PC Length=6.9347 Units=m
New Line.LINE2542 Bus1=2524 Bus2=2543 phases=3 Linecode=4c_.06 Length=0.14066 Units=m
New Line.LINE2547 Bus1=2529 Bus2=2548 phases=3 Linecode=2c_.04 Length=4.3401 Units=m
New Line.LINE2561 Bus1=2543 Bus2=2562 phases=3 Linecode=4c_.06 Length=0.1587 Units=m
New Line.LINE2574 Bus1=2559 Bus2=2575 phases=3 Linecode=2c_.04 Length=4.7984 Units=m
New Line.LINE2576 Bus1=2560 Bus2=2577 phases=3 Linecode=2c_.04 Length=3.6907 Units=m
New Line.LINE2579 Bus1=2562 Bus2=2580 phases=3 Linecode=4c_.06 Length=4.1668 Units=m
New Line.LINE2594 Bus1=2580 Bus2=2595 phases=3 Linecode=4c_.06 Length=0.21392 Units=m
New Line.LINE2595 Bus1=2581 Bus2=2596 phases=3 Linecode=2c_.04 Length=5.1003 Units=m
New Line.LINE2597 Bus1=2582 Bus2=2598 phases=3 Linecode=2c_.04 Length=5.2284 Units=m
New Line.LINE2610 Bus1=2595 Bus2=2611 phases=3 Linecode=4c_.06 Length=0.15931 Units=m
New Line.LINE2614 Bus1=2601 Bus2=2615 phases=3 Linecode=2c_.04 Length=3.3739 Units=m
New Line.LINE2624 Bus1=2611 Bus2=2625 phases=3 Linecode=4c_.06 Length=0.13038 Units=m
New Line.LINE2637 Bus1=2625 Bus2=2638 phases=3 Linecode=4c_.06 Length=0.20689 Units=m
New Line.LINE2650 Bus1=2638 Bus2=2651 phases=3 Linecode=4c_.06 Length=1.4936 Units=m
New Line.LINE2653 Bus1=2641 Bus2=2654 phases=3 Linecode=2c_.04 Length=4.7561 Units=m
New Line.LINE2664 Bus1=2651 Bus2=2665 phases=3 Linecode=2c_.04 Length=0.56929 Units=m
New Line.LINE2676 Bus1=2665 Bus2=2677 phases=3 Linecode=2c_.04 Length=0.159 Units=m
New Line.LINE2682 Bus1=2671 Bus2=2683 phases=3 Linecode=2c_.04 Length=4.633 Units=m
New Line.LINE2688 Bus1=2677 Bus2=2689 phases=3 Linecode=2c_.04 Length=0.14464 Units=m
New Line.LINE2700 Bus1=2689 Bus2=2701 phases=3 Linecode=2c_.04 Length=0.10734 Units=m
New Line.LINE2711 Bus1=2700 Bus2=2712 phases=3 Linecode=3c_.06 Length=2.3329 Units=m
New Line.LINE2713 Bus1=2701 Bus2=2714 phases=3 Linecode=2c_.04 Length=0.23994 Units=m
New Line.LINE2723 Bus1=2711 Bus2=2724 phases=3 Linecode=3c_.06 Length=3.4674 Units=m
New Line.LINE2726 Bus1=2714 Bus2=2727 phases=3 Linecode=2c_.04 Length=10.7571 Units=m
New Line.LINE2784 Bus1=2778 Bus2=2785 phases=3 Linecode=3c_.06 Length=5.0962 Units=m
New Line.LINE2791 Bus1=2784 Bus2=2792 phases=3 Linecode=2c_.04 Length=5.9373 Units=m
New Line.LINE2802 Bus1=2797 Bus2=2803 phases=3 Linecode=2c_.04 Length=3.1556 Units=m
New Line.LINE2803 Bus1=2797 Bus2=2804 phases=3 Linecode=2c_.04 Length=3.1556 Units=m
New Line.LINE2814 Bus1=2810 Bus2=2815 phases=3 Linecode=2c_.04 Length=3.0263 Units=m
New Line.LINE2815 Bus1=2810 Bus2=2816 phases=3 Linecode=2c_.04 Length=3.0263 Units=m
New Line.LINECmpd_0 Bus1=96 Bus2=201 phases=3 Linecode=2c_.04 Length=8.15639 Units=m
New Line.LINECmpd_1 Bus1=1297 Bus2=1540 phases=3 Linecode=4c_.25 Length=32.711346 Units=m
New Line.LINECmpd_2 Bus1=1360 Bus2=1449 phases=3 Linecode=2c_.04 Length=13.0204 Units=m
New Line.LINECmpd_3 Bus1=1786 Bus2=1995 phases=3 Linecode=4c_.06 Length=31.4584 Units=m
New Line.LINECmpd_4 Bus1=469 Bus2=748 phases=3 Linecode=2c_.04 Length=13.84201 Units=m
New Line.LINECmpd_5 Bus1=240 Bus2=504 phases=3 Linecode=4c_.06 Length=30.85629 Units=m
New Line.LINECmpd_6 Bus1=2502 Bus2=2637 phases=3 Linecode=2c_.04 Length=18.31578 Units=m
New Line.LINECmpd_7 Bus1=842 Bus2=1156 phases=3 Linecode=2c_.04 Length=11.631718 Units=m
New Line.LINECmpd_8 Bus1=1676 Bus2=1695 phases=3 Linecode=2c_.04 Length=6.4777 Units=m
New Line.LINECmpd_9 Bus1=635 Bus2=1297 phases=3 Linecode=4c_.25 Length=45.35888 Units=m
New Line.LINECmpd_10 Bus1=2346 Bus2=2603 phases=3 Linecode=2c_.04 Length=13.111895 Units=m
New Line.LINECmpd_11 Bus1=294 Bus2=534 phases=3 Linecode=2c_.04 Length=8.36087 Units=m
New Line.LINECmpd_12 Bus1=1643 Bus2=1729 phases=3 Linecode=4c_.25 Length=14.20152 Units=m
New Line.LINECmpd_13 Bus1=703 Bus2=874 phases=3 Linecode=16_PSC Length=1.24032 Units=m
New Line.LINECmpd_14 Bus1=251 Bus2=421 phases=3 Linecode=2c_.04 Length=21.82432 Units=m
New Line.LINECmpd_15 Bus1=1956 Bus2=2251 phases=3 Linecode=2c_.04 Length=14.258843 Units=m
New Line.LINECmpd_16 Bus1=2559 Bus2=2759 phases=3 Linecode=2c_.04 Length=13.67486 Units=m
New Line.LINECmpd_17 Bus1=505 Bus2=878 phases=3 Linecode=2c_.04 Length=11.264769 Units=m
New Line.LINECmpd_18 Bus1=1777 Bus2=2121 phases=3 Linecode=4c_.06 Length=46.654258 Units=m
New Line.LINECmpd_19 Bus1=53 Bus2=92 phases=3 Linecode=4c_.25 Length=59.2901 Units=m
New Line.LINECmpd_20 Bus1=812 Bus2=1101 phases=3 Linecode=2c_.04 Length=16.53181 Units=m
New Line.LINECmpd_21 Bus1=2259 Bus2=2672 phases=3 Linecode=2c_.04 Length=12.408518 Units=m
New Line.LINECmpd_22 Bus1=2784 Bus2=2837 phases=3 Linecode=2c_.04 Length=13.55912 Units=m
New Line.LINECmpd_23 Bus1=1673 Bus2=1764 phases=3 Linecode=25_SAC_XC Length=18.876806 Units=m
New Line.LINECmpd_24 Bus1=2560 Bus2=2781 phases=3 Linecode=2c_.04 Length=12.69684 Units=m
New Line.LINECmpd_25 Bus1=577 Bus2=812 phases=3 Linecode=2c_.04 Length=10.63079 Units=m
New Line.LINECmpd_26 Bus1=1128 Bus2=1342 phases=3 Linecode=2c_.04 Length=21.175557 Units=m
New Line.LINECmpd_27 Bus1=534 Bus2=855 phases=3 Linecode=2c_.04 Length=11.61301 Units=m
New Line.LINECmpd_28 Bus1=2347 Bus2=2671 phases=3 Linecode=2c_.04 Length=7.597821 Units=m
New Line.LINECmpd_29 Bus1=2317 Bus2=2529 phases=3 Linecode=2c_.04 Length=8.854828 Units=m
New Line.LINECmpd_30 Bus1=131 Bus2=243 phases=3 Linecode=2c_.04 Length=8.544922 Units=m
New Line.LINECmpd_31 Bus1=2341 Bus2=2582 phases=3 Linecode=2c_.04 Length=9.93371 Units=m
New Line.LINECmpd_32 Bus1=1128 Bus2=1260 phases=3 Linecode=4c_.06 Length=12.09358 Units=m
New Line.LINECmpd_33 Bus1=524 Bus2=924 phases=3 Linecode=4c_.06 Length=28.87262 Units=m
New Line.LINECmpd_34 Bus1=2711 Bus2=2797 phases=3 Linecode=2c_.04 Length=6.700505 Units=m
New Line.LINECmpd_35 Bus1=201 Bus2=412 phases=3 Linecode=2c_.04 Length=11.72995 Units=m
New Line.LINECmpd_36 Bus1=1483 Bus2=1675 phases=3 Linecode=2c_.04 Length=6.126043 Units=m
New Line.LINECmpd_37 Bus1=1789 Bus2=1929 phases=3 Linecode=2c_.04 Length=12.191618 Units=m
New Line.LINECmpd_38 Bus1=1988 Bus2=2300 phases=3 Linecode=35_SAC_PC Length=18.56925 Units=m
New Line.LINECmpd_39 Bus1=2346 Bus2=2586 phases=3 Linecode=25_PSC Length=6.86164 Units=m
New Line.LINECmpd_40 Bus1=1210 Bus2=1402 phases=3 Linecode=2c_.04 Length=22.613187 Units=m
New Line.LINECmpd_41 Bus1=1926 Bus2=2163 phases=3 Linecode=2c_.04 Length=13.72268 Units=m
New Line.LINECmpd_42 Bus1=2121 Bus2=2228 phases=3 Linecode=2c_.04 Length=13.04828 Units=m
New Line.LINECmpd_43 Bus1=1835 Bus2=1938 phases=3 Linecode=2c_.04 Length=13.31919 Units=m
New Line.LINECmpd_44 Bus1=565 Bus2=920 phases=3 Linecode=2c_.04 Length=11.08135 Units=m
New Line.LINECmpd_45 Bus1=483 Bus2=854 phases=3 Linecode=3c_.04 Length=12.477526 Units=m
New Line.LINECmpd_46 Bus1=609 Bus2=797 phases=3 Linecode=2c_.04 Length=10.82792 Units=m
New Line.LINECmpd_47 Bus1=2180 Bus2=2438 phases=3 Linecode=25_SAC_XC Length=8.37153 Units=m
New Line.LINECmpd_48 Bus1=151 Bus2=205 phases=3 Linecode=2c_.04 Length=3.39014 Units=m
New Line.LINECmpd_49 Bus1=1889 Bus2=2110 phases=3 Linecode=2c_.04 Length=14.433883 Units=m
New Line.LINECmpd_50 Bus1=2682 Bus2=2787 phases=3 Linecode=2c_.04 Length=13.903718 Units=m
New Line.LINECmpd_51 Bus1=1503 Bus2=1652 phases=3 Linecode=2c_.04 Length=28.18889 Units=m
New Line.LINECmpd_52 Bus1=2637 Bus2=2700 phases=3 Linecode=2c_.04 Length=1.042303 Units=m
New Line.LINECmpd_53 Bus1=1475 Bus2=1676 phases=3 Linecode=2c_.04 Length=19.99679 Units=m
New Line.LINECmpd_54 Bus1=2015 Bus2=2183 phases=3 Linecode=35_SAC_PC Length=16.54472 Units=m
New Line.LINECmpd_55 Bus1=1696 Bus2=1709 phases=3 Linecode=2c_.04 Length=7.4621 Units=m