New Line.LINE171_55 Bus1=171_53 Bus2=171_56 phases=3 Linecode=2c_.04 Length=6.7095 Units=m
New Line.LINE171_101 Bus1=171_96 Bus2=171_102 phases=3 Linecode=2c_.04 Length=3.3635 Units=m
New Line.LINE171_103 Bus1=171_97 Bus2=171_104 phases=3 Linecode=2c_.04 Length=4.0329 Units=m
New Line.LINE171_130 Bus1=171_123 Bus2=171_131 phases=3 Linecode=2c_.04 Length=7.2512 Units=m
New Line.LINE171_140 Bus1=171_131 Bus2=171_141 phases=3 Linecode=2c_.04 Length=4.6693 Units=m
New Line.LINE171_150 Bus1=171_142 Bus2=171_151 phases=3 Linecode=2c_.04 Length=6.0658 Units=m
New Line.LINE171_210 Bus1=171_200 Bus2=171_211 phases=3 Linecode=4c_.25 Length=11.0652 Units=m
New Line.LINE171_211 Bus1=171_201 Bus2=171_212 phases=3 Linecode=2c_.04 Length=4.0654 Units=m
New Line.LINE171_216 Bus1=171_205 Bus2=171_217 phases=3 Linecode=2c_.04 Length=4.0018 Units=m
New Line.LINE171_227 Bus1=171_214 Bus2=171_228 phases=3 Linecode=2c_.04 Length=4.2218 Units=m
New Line.LINE171_231 Bus1=171_218 Bus2=171_232 phases=3 Linecode=2c_.04 Length=4.2077 Units=m
New Line.LINE171_257 Bus1=171_243 Bus2=171_258 phases=3 Linecode=2c_.04 Length=5.0758 Units=m
New Line.LINE171_266 Bus1=171_251 Bus2=171_267 phases=3 Linecode=2c_.04 Length=6.7974 Units=m
New Line.LINE171_280 Bus1=171_265 Bus2=171_281 phases=3 Linecode=2c_.04 Length=2.815 Units=m
New Line.LINE171_293 Bus1=171_278 Bus2=171_294 phases=3 Linecode=2c_.04 Length=7.5007 Units=m
New Line.LINE171_309 Bus1=171_294 Bus2=171_310 phases=3 Linecode=2c_.04 Length=2.467 Units=m
New Line.LINE171_348 Bus1=171_331 Bus2=171_349 phases=3 Linecode=4c_.25 Length=3.9607 Units=m
New Line.LINE171_367 Bus1=171_349 Bus2=171_368 phases=3 Linecode=2c_.04 Length=4.3534 Units=m
New Line.LINE171_440 Bus1=171_421 Bus2=171_441 phases=3 Linecode=2c_.04 Length=8.22 Units=m
New Line.LINE171_441 Bus1=171_421 Bus2=171_442 phases=3 Linecode=2c_.04 Length=3.4826 Units=m
New Line.LINE171_445 Bus1=171_424 Bus2=171_446 phases=3 Linecode=2c_.04 Length=4.5578 Units=m
New Line.LINE171_464 Bus1=171_444 Bus2=171_465 phases=3 Linecode=2c_.04 Length=4.384 Units=m
New Line.LINE171_492 Bus1=171_469 Bus2=171_493 phases=3 Linecode=2c_25 Length=5.3207 Units=m
New Line.LINE171_506 Bus1=171_483 Bus2=171_507 phases=3 Linecode=3c_.04 Length=3.5235 Units=m
New Line.LINE171_517 Bus1=171_494 Bus2=171_518 phases=3 Linecode=2c_25 Length=6.9692 Units=m
New Line.LINE171_527 Bus1=171_504 Bus2=171_528 phases=3 Linecode=2c_.04 Length=7.2537 Units=m
New Line.LINE171_528 Bus1=171_504 Bus2=171_529 phases=3 Linecode=4c_.06 Length=1.6403 Units=m
New Line.LINE171_530 Bus1=171_505 Bus2=171_531 phases=3 Linecode=3c_.04 Length=5.3906 Units=m
New Line.LINE171_559 Bus1=171_534 Bus2=171_560 phases=3 Linecode=2c_.04 Length=4.8635 Units=m
New Line.LINE171_589 Bus1=171_565 Bus2=171_590 phases=3 Linecode=2c_.04 Length=3.7153 Units=m
New Line.LINE171_603 Bus1=171_577 Bus2=171_604 phases=3 Linecode=4c_.25 Length=4.3797 Units=m
New Line.LINE171_619 Bus1=171_592 Bus2=171_620 phases=3 Linecode=2c_.04 Length=4.7061 Units=m
New Line.LINE171_634 Bus1=171_604 Bus2=171_635 phases=3 Linecode=4c_.25 Length=11.0783 Units=m
New Line.LINE171_638 Bus1=171_609 Bus2=171_639 phases=3 Linecode=4c_.04 Length=1.1767 Units=m
New Line.LINE171_668 Bus1=171_639 Bus2=171_669 phases=3 Linecode=4c_.04 Length=7.8365 Units=m
New Line.LINE171_699 Bus1=171_667 Bus2=171_700 phases=3 Linecode=2c_.04 Length=5.4667 Units=m
New Line.LINE171_701 Bus1=171_668 Bus2=171_702 phases=3 Linecode=2c_.04 Length=4.8917 Units=m
New Line.LINE171_702 Bus1=171_669 Bus2=171_703 phases=3 Linecode=16_PSC Length=7.7524 Units=m
New Line.LINE171_821 Bus1=171_795 Bus2=171_822 phases=3 Linecode=16_PSC Length=4.5613 Units=m
New Line.LINE171_822 Bus1=171_795 Bus2=171_823 phases=3 Linecode=16_PSC Length=4.5613 Units=m
New Line.LINE171_839 Bus1=171_812 Bus2=171_840 phases=3 Linecode=2c_.04 Length=2.5106 Units=m
New Line.LINE171_865 Bus1=171_842 Bus2=171_866 phases=3 Linecode=2c_.04 Length=5.6608 Units=m
New Line.LINE171_889 Bus1=171_868 Bus2=171_890 phases=3 Linecode=2c_.04 Length=4.2233 Units=m
New Line.LINE171_895 Bus1=171_874 Bus2=171_896 phases=3 Linecode=16_PSC Length=2.5914 Units=m
New Line.LINE171_896 Bus1=171_874 Bus2=171_897 phases=3 Linecode=16_PSC Length=2.5914 Units=m
New Line.LINE171_938 Bus1=171_924 Bus2=171_939 phases=3 Linecode=4c_.06 Length=3.6813 Units=m
New Line.LINE171_940 Bus1=171_924 Bus2=171_941 phases=3 Linecode=2c_.04 Length=7.9167 Units=m
New Line.LINE171_950 Bus1=171_935 Bus2=171_951 phases=3 Linecode=2c_.04 Length=13.2093 Units=m
New Line.LINE171_955 Bus1=171_939 Bus2=171_956 phases=3 Linecode=4c_.06 Length=6.9605 Units=m
New Line.LINE171_957 Bus1=171_941 Bus2=171_958 phases=3 Linecode=2c_.04 Length=5.1934 Units=m
New Line.LINE171_967 Bus1=171_951 Bus2=171_968 phases=3 Linecode=2c_.04 Length=5.0257 Units=m
New Line.LINE171_973 Bus1=171_956 Bus2=171_974 phases=3 Linecode=4c_.06 Length=4.4292 Units=m
New Line.LINE171_990 Bus1=171_974 Bus2=171_991 phases=3 Linecode=2c_.04 Length=8.3175 Units=m
New Line.LINE171_991 Bus1=171_974 Bus2=171_992 phases=3 Linecode=4c_.06 Length=15.1499 Units=m
New Line.LINE171_1011 Bus1=171_991 Bus2=171_1012 phases=3 Linecode=2c_.04 Length=5.2332 Units=m
New Line.LINE171_1024 Bus1=171_1002 Bus2=171_1025 phases=3 Linecode=2c_.04 Length=5.9953 Units=m
New Line.LINE171_1025 Bus1=171_1002 Bus2=171_1026 phases=3 Linecode=2c_.04 Length=5.9953 Units=m
New Line.LINE171_1044 Bus1=171_1021 Bus2=171_1045 phases=3 Linecode=2c_.04 Length=6.3831 Units=m
New Line.LINE171_1045 Bus1=171_1021 Bus2=171_1046 phases=3 Linecode=2c_.04 Length=6.3831 Units=m
New Line.LINE171_1069 Bus1=171_1050 Bus2=171_1070 phases=3 Linecode=2c_.04 Length=5.3474 Units=m
New Line.LINE171_1070 Bus1=171_1050 Bus2=171_1071 phases=3 Linecode=2c_.04 Length=5.3474 Units=m
New Line.LINE171_1113 Bus1=171_1097 Bus2=171_1114 phases=3 Linecode=2c_.04 Length=5.3997 Units=m
New Line.LINE171_1118 Bus1=171_1101 Bus2=171_1119 phases=3 Linecode=2c_.04 Length=3.895 Units=m
New Line.LINE171_1119 Bus1=171_1101 Bus2=171_1120 phases=3 Linecode=2c_.04 Length=3.895 Units=m
New Line.LINE171_1124 Bus1=171_1106 Bus2=171_1125 phases=3 Linecode=2c_.04 Length=5.937 Units=m
New Line.LINE171_1125 Bus1=171_1106 Bus2=171_1126 phases=3 Linecode=2c_.04 Length=5.937 Units=m
New Line.LINE171_1164 Bus1=171_1147 Bus2=171_1165 phases=3 Linecode=2c_.04 Length=4.1276 Units=m
New Line.LINE171_1173 Bus1=171_1156 Bus2=171_1174 phases=3 Linecode=2c_.04 Length=4.9159 Units=m
New Line.LINE171_1247 Bus1=171_1235 Bus2=171_1248 phases=3 Linecode=2c_.04 Length=7.6118 Units=m
New Line.LINE171_1251 Bus1=171_1238 Bus2=171_1252 phases=3 Linecode=2c_.04 Length=2.3274 Units=m
New Line.LINE171_1252 Bus1=171_1238 Bus2=171_1253 phases=3 Linecode=2c_.04 Length=2.3274 Units=m
New Line.LINE171_1253 Bus1=171_1239 Bus2=171_1254 phases=3 Linecode=2c_.04 Length=8.006 Units=m
New Line.LINE171_1254 Bus1=171_1239 Bus2=171_1255 phases=3 Linecode=2c_.04 Length=8.006 Units=m
New Line.LINE171_1280 Bus1=171_1268 Bus2=171_1281 phases=3 Linecode=2c_.04 Length=5.4981 Units=m
New Line.LINE171_1281 Bus1=171_1268 Bus2=171_1282 phases=3 Linecode=2c_.04 Length=5.4981 Units=m
New Line.LINE171_1308 Bus1=171_1297 Bus2=171_1309 phases=3 Linecode=4c_.04 Length=11.433 Units=m
New Line.LINE171_1315 Bus1=171_1303 Bus2=171_1316 phases=3 Linecode=2c_.04 Length=6.8632 Units=m
New Line.LINE171_1316 Bus1=171_1303 Bus2=171_1317 phases=3 Linecode=2c_.04 Length=6.8632 Units=m
New Line.LINE171_1333 Bus1=171_1322 Bus2=171_1334 phases=3 Linecode=2c_.04 Length=5.1168 Units=m
New Line.LINE171_1334 Bus1=171_1322 Bus2=171_1335 phases=3 Linecode=2c_.04 Length=5.1168 Units=m
New Line.LINE171_1343 Bus1=171_1331 Bus2=171_1344 phases=3 Linecode=2c_.04 Length=3.3703 Units=m
New Line.LINE171_1344 Bus1=171_1331 Bus2=171_1345 phases=3 Linecode=2c_.04 Length=3.3703 Units=m
New Line.LINE171_1354 Bus1=171_1342 Bus2=171_1355 phases=3 Linecode=2c_.04 Length=3.7568 Units=m
New Line.LINE171_1368 Bus1=171_1359 Bus2=171_1369 phases=3 Linecode=2c_.04 Length=6.5888 Units=m
New Line.LINE171_1370 Bus1=171_1360 Bus2=171_1371 phases=3 Linecode=2c_.04 Length=5.1502 Units=m
New Line.LINE171_1396 Bus1=171_1386 Bus2=171_1397 phases=3 Linecode=2c_.04 Length=3.2571 Units=m
New Line.LINE171_1412 Bus1=171_1402 Bus2=171_1413 phases=3 Linecode=2c_.04 Length=3.4625 Units=m
New Line.LINE171_1418 Bus1=171_1408 Bus2=171_1419 phases=3 Linecode=2c_.04 Length=4.4401 Units=m
New Line.LINE171_1419 Bus1=171_1408 Bus2=171_1420 phases=3 Linecode=2c_.04 Length=4.4401 Units=m
New Line.LINE171_1435 Bus1=171_1424 Bus2=171_1436 phases=3 Linecode=2c_.04 Length=4.3498 Units=m
New Line.LINE171_1474 Bus1=171_1467 Bus2=171_1475 phases=3 Linecode=2c_.04 Length=0.49008 Units=m
New Line.LINE171_1475 Bus1=171_1467 Bus2=171_1476 phases=3 Linecode=2c_.04 Length=2.0999 Units=m
New Line.LINE171_1477 Bus1=171_1469 Bus2=171_1478 phases=3 Linecode=2c_.04 Length=6.0455 Units=m
New Line.LINE171_1485 Bus1=171_1475 Bus2=171_1486 phases=3 Linecode=3c_.04 Length=4.0441 Units=m
New Line.LINE171_1487 Bus1=171_1476 Bus2=171_1488 phases=3 Linecode=3c_.04 Length=3.2927 Units=m
New Line.LINE171_1513 Bus1=171_1503 Bus2=171_1514 phases=3 Linecode=2c_.04 Length=4.8397 Units=m
New Line.LINE171_1514 Bus1=171_1503 Bus2=171_1515 phases=3 Linecode=2c_.04 Length=7.2461 Units=m
New Line.LINE171_1547 Bus1=171_1540 Bus2=171_1548 phases=3 Linecode=4c_.04 Length=11.6486 Units=m
New Line.LINE171_1600 Bus1=171_1593 Bus2=171_1601 phases=3 Linecode=2c_.04 Length=4.121 Units=m
New Line.LINE171_1610 Bus1=171_1603 Bus2=171_1611 phases=3 Linecode=2c_.04 Length=3.7745 Units=m
New Line.LINE171_1680 Bus1=171_1673 Bus2=171_1681 phases=3 Linecode=25_SAC_XC Length=5.6849 Units=m
New Line.LINE171_1684 Bus1=171_1675 Bus2=171_1685 phases=3 Linecode=2c_.04 Length=4.092 Units=m
New Line.LINE171_1686 Bus1=171_1676 Bus2=171_1687 phases=3 Linecode=2c_.04 Length=2.6414 Units=m
New Line.LINE171_1688 Bus1=171_1679 Bus2=171_1689 phases=3 Linecode=2c_.04 Length=4.3083 Units=m
New Line.LINE171_1702 Bus1=171_1696 Bus2=171_1703 phases=3 Linecode=2c_.04 Length=3.5021 Units=m
New Line.LINE171_1733 Bus1=171_1729 Bus2=171_1734 phases=3 Linecode=4c_.25 Length=4.1446 Units=m
New Line.LINE171_1738 Bus1=171_1734 Bus2=171_1739 phases=3 Linecode=2c_.04 Length=6.0382 Units=m
New Line.LINE171_1781 Bus1=171_1775 Bus2=171_1782 phases=3 Linecode=2c_.04 Length=5.0161 Units=m
New Line.LINE171_1785 Bus1=171_1777 Bus2=171_1786 phases=3 Linecode=4c_.25 Length=13.6692 Units=m
New Line.LINE171_1796 Bus1=171_1789 Bus2=171_1797 phases=3 Linecode=2c_.04 Length=4.6746 Units=m
New Line.LINE171_1807 Bus1=171_1799 Bus2=171_1808 phases=3 Linecode=2c_.04 Length=2.9815 Units=m
New Line.LINE171_1810 Bus1=171_1801 Bus2=171_1811 phases=3 Linecode=2c_.04 Length=4.1446 Units=m
New Line.LINE171_1814 Bus1=171_1803 Bus2=171_1815 phases=3 Linecode=2c_.04 Length=6.1171 Units=m
New Line.LINE171_1901 Bus1=171_1889 Bus2=171_1902 phases=3 Linecode=2c_.04 Length=5.1606 Units=m
New Line.LINE171_1938 Bus1=171_1926 Bus2=171_1939 phases=3 Linecode=2c_.04 Length=3.3374 Units=m
New Line.LINE171_1968 Bus1=171_1956 Bus2=171_1969 phases=3 Linecode=2c_.04 Length=4.7033 Units=m
New Line.LINE171_2009 Bus1=171_1995 Bus2=171_2010 phases=3 Linecode=4c_.06 Length=3.1868 Units=m
New Line.LINE171_2018 Bus1=171_2004 Bus2=171_2019 phases=3 Linecode=3c_.04 Length=5.3502 Units=m
New Line.LINE171_2020 Bus1=171_2005 Bus2=171_2021 phases=3 Linecode=3c_.04 Length=3.3252 Units=m
New Line.LINE171_2026 Bus1=171_2010 Bus2=171_2027 phases=3 Linecode=2c_.04 Length=8.3027 Units=m
New Line.LINE171_2032 Bus1=171_2015 Bus2=171_2033 phases=3 Linecode=3c_95_SAC_XC Length=0.81763 Units=m
New Line.LINE171_2073 Bus1=171_2051 Bus2=171_2074 phases=3 Linecode=4c_.25 Length=15.6609 Units=m
New Line.LINE171_2189 Bus1=171_2165 Bus2=171_2190 phases=3 Linecode=2c_.04 Length=5.2738 Units=m
New Line.LINE171_2191 Bus1=171_2166 Bus2=171_2192 phases=3 Linecode=25_SAC_XC Length=6.0758 Units=m
New Line.LINE171_2193 Bus1=171_2167 Bus2=171_2194 phases=3 Linecode=2c_.04 Length=4.2738 Units=m
New Line.LINE171_2278 Bus1=171_2251 Bus2=171_2279 phases=3 Linecode=2c_.04 Length=3.5743 Units=m
New Line.LINE171_2279 Bus1=171_2251 Bus2=171_2280 phases=3 Linecode=2c_.04 Length=3.5743 Units=m
New Line.LINE171_2287 Bus1=171_2259 Bus2=171_2288 phases=3 Linecode=2c_.04 Length=4.0072 Units=m
New Line.LINE171_2305 Bus1=171_2276 Bus2=171_2306 phases=3 Linecode=2c_.04 Length=3.8839 Units=m
New Line.LINE171_2316 Bus1=171_2286 Bus2=171_2317 phases=3 Linecode=2c_.04 Length=13.2658 Units=m
New Line.LINE171_2329 Bus1=171_2300 Bus2=171_2330 phases=3 Linecode=35_SAC_PC Length=4.4194 Units=m
New Line.LINE171_2345 Bus1=171_2317 Bus2=171_2346 phases=3 Linecode=2c_.04 Length=3.2062 Units=m
New Line.LINE171_2368 Bus1=171_2340 Bus2=171_2369 phases=3 Linecode=2c_.04 Length=4.5148 Units=m
New Line.LINE171_2370 Bus1=171_2341 Bus2=171_2371 phases=3 Linecode=2c_.04 Length=5.2818 Units=m
New Line.LINE171_2378 Bus1=171_2347 Bus2=171_2379 phases=3 Linecode=2c_.04 Length=3.6768 Units=m
New Line.LINE171_2428 Bus1=171_2402 Bus2=171_2429 phases=3 Linecode=2c_.04 Length=4.4318 Units=m
New Line.LINE171_2463 Bus1=171_2438 Bus2=171_2464 phases=3 Linecode=25_SAC_XC Length=6.8433 Units=m
New Line.LINE171_2464 Bus1=171_2438 Bus2=171_2465 phases=3 Linecode=25_SAC_XC Length=6.8433 Units=m
New Line.LINE171_2482 Bus1=171_2457 Bus2=171_2483 phases=3 Linecode=2c_.04 Length=4.9182 Units=m
New Line.LINE171_2493 Bus1=171_2469 Bus2=171_2494 phases=3 Linecode=35_SAC_PC Length=3.6023 Units=m
New Line.LINE171_2534 Bus1=171_2513 Bus2=171_2535 phases=3 Linecode=35_SAC_PC Length=6.9347 Units=m
New Line.LINE171_2547 Bus1=171_2529 Bus2=171_2548 phases=3 Linecode=2c_.04 Length=4.3401 Units=m
New Line.LINE171_2574 Bus1=171_2559 Bus2=171_2575 phases=3 Linecode=2c_.04 Length=4.7984 Units=m
New Line.LINE171_2576 Bus1=171_2560 Bus2=171_2577 phases=3 Linecode=2c_.04 Length=3.6907 Units=m
New Line.LINE171_2595 Bus1=171_2581 Bus2=171_2596 phases=3 Linecode=2c_.04 Length=5.1003 Units=m
New Line.LINE171_2597 Bus1=171_2582 Bus2=171_2598 phases=3 Linecode=2c_.04 Length=5.2284 Units=m
New Line.LINE171_2614 Bus1=171_2601 Bus2=171_2615 phases=3 Linecode=2c_.04 Length=3.3739 Units=m
New Line.LINE171_2653 Bus1=171_2641 Bus2=171_2654 phases=3 Linecode=2c_.04 Length=4.7561 Units=m
New Line.LINE171_2682 Bus1=171_2671 Bus2=171_2683 phases=3 Linecode=2c_.04 Length=4.633 Units=m
New Line.LINE171_2711 Bus1=171_2700 Bus2=171_2712 phases=3 Linecode=3c_.06 Length=2.3329 Units=m
New Line.LINE171_2723 Bus1=171_2711 Bus2=171_2724 phases=3 Linecode=3c_.06 Length=3.4674 Units=m
New Line.LINE171_2784 Bus1=171_2778 Bus2=171_2785 phases=3 Linecode=3c_.06 Length=5.0962 Units=m
New Line.LINE171_2791 Bus1=171_2784 Bus2=171_2792 phases=3 Linecode=2c_.04 Length=5.9373 Units=m
New Line.LINE171_2802 Bus1=171_2797 Bus2=171_2803 phases=3 Linecode=2c_.04 Length=3.1556 Units=m
New Line.LINE171_2803 Bus1=171_2797 Bus2=171_2804 phases=3 Linecode=2c_.04 Length=3.1556 Units=m
New Line.LINE171_2814 Bus1=171_2810 Bus2=171_2815 phases=3 Linecode=2c_.04 Length=3.0263 Units=m
New Line.LINE171_2815 Bus1=171_2810 Bus2=171_2816 phases=3 Linecode=2c_.04 Length=3.0263 Units=m
New Line.LINE171_Cmpd_0 Bus1=171_941 Bus2=171_1201 phases=3 Linecode=2c_.04 Length=17.30548 Units=m
New Line.LINE171_Cmpd_1 Bus1=171_1540 Bus2=171_1643 phases=3 Linecode=4c_.25 Length=25.41092 Units=m
New Line.LINE171_Cmpd_2 Bus1=171_1643 Bus2=171_1729 phases=3 Linecode=4c_.25 Length=14.20152 Units=m
New Line.LINE171_Cmpd_3 Bus1=171_1548 Bus2=171_1593 phases=3 Linecode=2c_.04 Length=5.112131 Units=m
New Line.LINE171_Cmpd_4 Bus1=171_425 Bus2=171_565 phases=3 Linecode=2c_.04 Length=6.90096 Units=m
New Line.LINE171_Cmpd_5 Bus1=171_1210 Bus2=171_1402 phases=3 Linecode=2c_.04 Length=22.613187 Units=m
New Line.LINE171_Cmpd_6 Bus1=171_1503 Bus2=171_1652 phases=3 Linecode=2c_.04 Length=28.18889 Units=m
New Line.LINE171_Cmpd_7 Bus1=171_97 Bus2=171_214 phases=3 Linecode=2c_.04 Length=8.176881 Units=m
New Line.LINE171_Cmpd_8 Bus1=171_1988 Bus2=171_2300 phases=3 Linecode=35_SAC_PC Length=18.56925 Units=m
New Line.LINE171_Cmpd_9 Bus1=171_2276 Bus2=171_2633 phases=3 Linecode=2c_.04 Length=13.96667 Units=m
New Line.LINE171_Cmpd_10 Bus1=171_483 Bus2=171_854 phases=3 Linecode=3c_.04 Length=12.477526 Units=m
New Line.LINE171_Cmpd_11 Bus1=171_1938 Bus2=171_2005 phases=3 Linecode=2c_.04 Length=2.10284 Units=m
New Line.LINE171_Cmpd_12 Bus1=171_935 Bus2=171_1128 phases=3 Linecode=4c_.06 Length=12.20198 Units=m
New Line.LINE171_Cmpd_13 Bus1=171_2259 Bus2=171_2672 phases=3 Linecode=2c_.04 Length=12.408518 Units=m
New Line.LINE171_Cmpd_14 Bus1=171_424 Bus2=171_713 phases=3 Linecode=2c_.04 Length=10.25 Units=m
New Line.LINE171_Cmpd_15 Bus1=171_1786 Bus2=171_1995 phases=3 Linecode=4c_.06 Length=31.4584 Units=m
New Line.LINE171_Cmpd_16 Bus1=171_2173 Bus2=171_2340 phases=3 Linecode=2c_.04 Length=2.59007 Units=m
New Line.LINE171_Cmpd_17 Bus1=171_1734 Bus2=171_1777 phases=3 Linecode=4c_.25 Length=28.52089 Units=m
New Line.LINE171_Cmpd_18 Bus1=171_2402 Bus2=171_2641 phases=3 Linecode=2c_.04 Length=15.434 Units=m
New Line.LINE171_Cmpd_19 Bus1=171_294 Bus2=171_534 phases=3 Linecode=2c_.04 Length=8.36087 Units=m
New Line.LINE171_Cmpd_20 Bus1=171_1673 Bus2=171_1764 phases=3 Linecode=25_SAC_XC Length=18.876806 Units=m
New Line.LINE171_Cmpd_21 Bus1=171_2010 Bus2=171_2310 phases=3 Linecode=4c_.06 Length=35.27425 Units=m
New Line.LINE171_Cmpd_22 Bus1=171_2074 Bus2=171_2347 phases=3 Linecode=2c_.04 Length=4.606217 Units=m
New Line.LINE171_Cmpd_23 Bus1=171_211 Bus2=171_251 phases=3 Linecode=2c_.04 Length=16.4452 Units=m
New Line.LINE171_Cmpd_24 Bus1=171_1593 Bus2=171_1678 phases=3 Linecode=2c_.04 Length=12.09514 Units=m
New Line.LINE171_Cmpd_25 Bus1=171_2637 Bus2=171_2700 phases=3 Linecode=2c_.04 Length=1.042303 Units=m
New Line.LINE171_Cmpd_26 Bus1=171_635 Bus2=171_1297 phases=3 Linecode=4c_.25 Length=45.35888 Units=m
New Line.LINE171_Cmpd_27 Bus1=171_1147 Bus2=171_1235 phases=3 Linecode=2c_.04 Length=5.938147 Units=m
New Line.LINE171_Cmpd_28 Bus1=171_2398 Bus2=171_2560 phases=3 Linecode=2c_.04 Length=4.48688 Units=m
New Line.LINE171_Cmpd_29 Bus1=171_1357 Bus2=171_1446 phases=3 Linecode=4c_.06 Length=11.04726 Units=m
New Line.LINE171_Cmpd_30 Bus1=171_53 Bus2=171_92 phases=3 Linecode=4c_.25 Length=59.2901 Units=m
New Line.LINE171_Cmpd_31 Bus1=171_2347 Bus2=171_2671 phases=3 Linecode=2c_.04 Length=7.597821 Units=m
New Line.LINE171_Cmpd_32 Bus1=171_1297 Bus2=171_1540 phases=3 Linecode=4c_.25 Length=32.711346 Units=m
New Line.LINE171_Cmpd_33 Bus1=171_338 Bus2=171_505 phases=3 Linecode=2c_.04 Length=2.76944 Units=m
New Line.LINE171_Cmpd_34 Bus1=171_1210 Bus2=171_1357 phases=3 Linecode=4c_.6 Length=14.27327 Units=m
New Line.LINE171_Cmpd_35 Bus1=171_668 Bus2=171_1050 phases=3 Linecode=2c_.04 Length=21.70948 Units=m
New Line.LINE171_Cmpd_36 Bus1=171_1476 Bus2=171_1696 phases=3 Linecode=2c_.04 Length=20.396941 Units=m
New Line.LINE171_Cmpd_37 Bus1=171_2784 Bus2=171_2837 phases=3 Linecode=2c_.04 Length=13.55912 Units=m
New Line.LINE171_Cmpd_38 Bus1=171_2682 Bus2=171_2787 phases=3 Linecode=2c_.04 Length=13.903718 Units=m
New Line.LINE171_Cmpd_39 Bus1=171_604 Bus2=171_842 phases=3 Linecode=2c_.04 Length=16.91687 Units=m
New Line.LINE171_Cmpd_40 Bus1=171_1 Bus2=171_32 phases=3 Linecode=3c_300_SAC_XC Length=42.202959 Units=m
New Line.LINE171_Cmpd_41 Bus1=171_1475 Bus2=171_1676 phases=3 Linecode=2c_.04 Length=19.99679 Units=m
New Line.LINE171_Cmpd_42 Bus1=171_2005 Bus2=171_2243 phases=3 Linecode=2c_.04 Length=12.28058 Units=m
New Line.LINE171_Cmpd_43 Bus1=171_2074 Bus2=171_2259 phases=3 Linecode=2c_.04 Length=6.213506 Units=m
New Line.LINE171_Cmpd_44 Bus1=171_2582 Bus2=171_2729 phases=3 Linecode=2c_.04 Length=13.18678 Units=m
New Line.LINE171_Cmpd_45 Bus1=171_1342 Bus2=171_1408 phases=3 Linecode=2c_.04 Length=12.71498 Units=m
New Line.LINE171_Cmpd_46 Bus1=171_2711 Bus2=171_2797 phases=3 Linecode=2c_.04 Length=6.700505 Units=m
New Line.LINE171_Cmpd_47 Bus1=171_494 Bus2=171_778 phases=3 Linecode=2c_.04 Length=13.20678 Units=m
New Line.LINE171_Cmpd_48 Bus1=171_524 Bus2=171_924 phases=3 Linecode=4c_.06 Length=28.87262 Units=m
New Line.LINE171_Cmpd_49 Bus1=171_1889 Bus2=171_2110 phases=3 Linecode=2c_.04 Length=14.433883 Units=m
New Line.LINE171_Cmpd_50 Bus1=171_1777 Bus2=171_2121 phases=3 Linecode=4c_.06 Length=46.654258 Units=m
New Line.LINE171_Cmpd_51 Bus1=171_56 Bus2=171_96 phases=3 Linecode=2c_.04 Length=4.99077 Units=m
New Line.LINE171_Cmpd_52 Bus1=171_2671 Bus2=171_2824 phases=3 Linecode=2c_.04 Length=14.721552 Units=m
New Line.LINE171_Cmpd_53 Bus1=171_812 Bus2=171_1101 phases=3 Linecode=2c_.04 Length=16.53181 Units=m
New Line.LINE171_Cmpd_54 Bus1=171_1835 Bus2=171_1938 phases=3 Linecode=2c_.04 Length=13.31919 Units=m
New Line.LINE171_Cmpd_55 Bus1=171_2340 Bus2=171_2581 phases=3 Linecode=2c_.04 Length=8.82803 Units=m
New Line.LINE171_Cmpd_56 Bus1=171_1359 Bus2=171_1469 phases=3 Linecode=2c_.04 Length=7.257082 Units=m
New Line.LINE171_Cmpd_57 Bus1=171_1424 Bus2=171_1626 phases=3 Linecode=2c_.04 Length=22.489367 Units=m
New Line.LINE171_Cmpd_58 Bus1=171_939 Bus2=171_1110 phases=3 Linecode=4c_.06 Length=43.0851 Units=m
New Line.LINE171_Cmpd_59 Bus1=171_218 Bus2=171_481 phases=3 Linecode=2c_.04 Length=12.162069 Units=m
New Line.LINE171_Cmpd_60 Bus1=171_639 Bus2=171_824 phases=3 Linecode=2c_.04 Length=11.0374 Units=m
New Line.LINE171_Cmpd_61 Bus1=171_1799 Bus2=171_1956 phases=3 Linecode=2c_.04 Length=6.905779 Units=m
New Line.LINE171_Cmpd_62 Bus1=171_577 Bus2=171_812 phases=3 Linecode=2c_.04 Length=10.63079 Units=m
New Line.LINE171_Cmpd_63 Bus1=171_992 Bus2=171_1097 phases=3 Linecode=2c_.04 Length=11.84913 Units=m
New Line.LINE171_Cmpd_64 Bus1=171_1097 Bus2=171_1238 phases=3 Linecode=2c_.04 Length=6.833733 Units=m
New Line.LINE171_Cmpd_65 Bus1=171_240 Bus2=171_504 phases=3 Linecode=4c_.06 Length=30.85629 Units=m
New Line.LINE171_Cmpd_66 Bus1=171_1128 Bus2=171_1342 phases=3 Linecode=2c_.04 Length=21.175557 Units=m
New Line.LINE171_Cmpd_67 Bus1=171_214 Bus2=171_352 phases=3 Linecode=2c_.04 Length=14.89157 Units=m
New Line.LINE171_Cmpd_68 Bus1=171_592 Bus2=171_921 phases=3 Linecode=2c_.04 Length=13.02968 Units=m
New Line.LINE171_Cmpd_69 Bus1=171_565 Bus2=171_920 phases=3 Linecode=2c_.04 Length=11.08135 Units=m
New Line.LINE171_Cmpd_70 Bus1=171_205 Bus2=171_434 phases=3 Linecode=2c_.04 Length=12.02879 Units=m
New Line.LINE171_Cmpd_71 Bus1=171_198 Bus2=171_338 phases=3 Linecode=2c_.04 Length=6.53371 Units=m
New Line.LINE171_Cmpd_72 Bus1=171_1386 Bus2=171_1552 phases=3 Linecode=2c_.04 Length=18.655965 Units=m
New Line.LINE171_Cmpd_73 Bus1=171_2502 Bus2=171_2651 phases=3 Linecode=4c_.06 Length=9.16606 Units=m
New Line.LINE171_Cmpd_74 Bus1=171_56 Bus2=171_97 phases=3 Linecode=2c_.04 Length=7.3354 Units=m
New Line.LINE171_Cmpd_75 Bus1=171_2180 Bus2=171_2438 phases=3 Linecode=25_SAC_XC Length=8.37153 Units=m
New Line.LINE171_Cmpd_76 Bus1=171_1739 Bus2=171_1801 phases=3 Linecode=2c_.04 Length=3.530112 Units=m
New Line.LINE171_Cmpd_77 Bus1=171_2601 Bus2=171_2755 phases=3 Linecode=2c_.04 Length=11.96001 Units=m
New Line.LINE171_Cmpd_78 Bus1=171_151 Bus2=171_218 phases=3 Linecode=2c_.04 Length=5.561817 Units=m
New Line.LINE171_Cmpd_79 Bus1=171_2237 Bus2=171_2513 phases=3 Linecode=35_SAC_PC Length=15.591467 Units=m
New Line.LINE171_Cmpd_80 Bus1=171_1886 Bus2=171_1988 phases=3 Linecode=3c_95_SAC_XC Length=8.41393 Units=m
New Line.LINE171_Cmpd_81 Bus1=171_151 Bus2=171_205 phases=3 Linecode=2c_.04 Length=3.39014 Units=m
New Line.LINE171_Cmpd_82 Bus1=171_1235 Bus2=171_1319 phases=3 Linecode=2c_.04 Length=11.54806 Units=m
New Line.LINE171_Cmpd_83 Bus1=171_2310 Bus2=171_2502 phases=3 Linecode=4c_.06 Length=7.32675 Units=m
New Line.LINE171_Cmpd_84 Bus1=171_528 Bus2=171_667 phases=3 Linecode=2c_.04 Length=3.36087 Units=m
New Line.LINE171_Cmpd_85 Bus1=171_1260 Bus2=171_1417 phases=3 Linecode=4c_.06 Length=19.90191 Units=m
New Line.LINE171_Cmpd_86 Bus1=171_2027 Bus2=171_2276 phases=3 Linecode=2c_.04 Length=4.395059 Units=m
New Line.LINE171_Cmpd_87 Bus1=171_131 Bus2=171_243 phases=3 Linecode=2c_.04 Length=8.544922 Units=m
New Line.LINE171_Cmpd_88 Bus1=171_1675 Bus2=171_1741 phases=3 Linecode=2c_.04 Length=20.74307 Units=m
New Line.LINE171_Cmpd_89 Bus1=171_1101 Bus2=171_1268 phases=3 Linecode=2c_.04 Length=15.32595 Units=m
New Line.LINE171_Cmpd_90 Bus1=171_703 Bus2=171_874 phases=3 Linecode=16_PSC Length=1.24032 Units=m
New Line.LINE171_Cmpd_91 Bus1=171_2346 Bus2=171_2586 phases=3 Linecode=25_PSC Length=6.86164 Units=m
New Line.LINE171_Cmpd_92 Bus1=171_2033 Bus2=171_2328 phases=3 Linecode=35_SAC_PC Length=16.96801 Units=m
New Line.LINE171_Cmpd_93 Bus1=171_2228 Bus2=171_2457 phases=3 Linecode=2c_.04 Length=5.62145 Units=m
New Line.LINE171_Cmpd_94 Bus1=171_2033 Bus2=171_2298 phases=3 Linecode=35_SAC_PC Length=17.49655 Units=m
New Line.LINE171_Cmpd_95 Bus1=171_2700 Bus2=171_2810 phases=3 Linecode=2c_.04 Length=6.739836 Units=m
New Line.LINE171_Cmpd_96 Bus1=171_528 Bus2=171_668 phases=3 Linecode=2c_.04 Length=4.91212 Units=m
New Line.LINE171_Cmpd_97 Bus1=171_32 Bus2=171_53 phases=3 Linecode=4c_.25 Length=36.66384 Units=m
New Line.LINE171_Cmpd_98 Bus1=171_1110 Bus2=171_1210 phases=3 Linecode=4c_.06 Length=9.07449 Units=m
New Line.LINE171_Cmpd_99 Bus1=171_2457 Bus2=171_2601 phases=3 Linecode=2c_.04 Length=6.1587 Units=m
New Line.LINE171_Cmpd_100 Bus1=171_2033 Bus2=171_2180 phases=3 Linecode=3c_95_SAC_XC Length=12.06891 Units=m
New Line.LINE171_Cmpd_101 Bus1=171_469 Bus2=171_748 phases=3 Linecode=2c_.04 Length=13.84201 Units=m
New Line.LINE171_Cmpd_102 Bus1=171_2026 Bus2=171_2166 phases=3 Linecode=25_SAC_XC Length=2.17128 Units=m
New Line.LINE171_Cmpd_103 Bus1=171_842 Bus2=171_1156 phases=3 Linecode=2c_.04 Length=11.631718 Units=m
New Line.LINE171_Cmpd_104 Bus1=171_200 Bus2=171_265 phases=3 Linecode=2c_.04 Length=10.76208 Units=m
New Line.LINE171_Cmpd_105 Bus1=171_2165 Bus2=171_2471 phases=3 Linecode=2c_.04 Length=12.05257 Units=m
New Line.LINE171_Cmpd_106 Bus1=171_349 Bus2=171_524 phases=3 Linecode=4c_.25 Length=43.1503 Units=m
New Line.LINE171_Cmpd_107 Bus1=171_444 Bus2=171_679 phases=3 Linecode=2c_.04 Length=10.69284 Units=m
New Line.LINE171_Cmpd_108 Bus1=171_1815 Bus2=171_1926 phases=3 Linecode=2c_.04 Length=8.40575 Units=m
New Line.LINE171_Cmpd_109 Bus1=171_1886 Bus2=171_2051 phases=3 Linecode=4c_.25 Length=40.14348 Units=m
New Line.LINE171_Cmpd_110 Bus1=171_2727 Bus2=171_2784 phases=3 Linecode=2c_.04 Length=5.154998 Units=m
New Line.LINE171_Cmpd_111 Bus1=171_1956 Bus2=171_2251 phases=3 Linecode=2c_.04 Length=14.258843 Units=m
New Line.LINE171_Cmpd_112 Bus1=171_1801 Bus2=171_1944 phases=3 Linecode=2c_.04 Length=11.433594 Units=m
New Line.LINE171_Cmpd_113 Bus1=171_2167 Bus2=171_2517 phases=3 Linecode=2c_.04 Length=13.765399 Units=m
New Line.LINE171_Cmpd_114 Bus1=171_1040 Bus2=171_1239 phases=3 Linecode=2c_.04 Length=13.99061 Units=m
New Line.LINE171_Cmpd_115 Bus1=171_2560 Bus2=171_2781 phases=3 Linecode=2c_.04 Length=12.69684 Units=m
New Line.LINE171_Cmpd_116 Bus1=171_331 Bus2=171_425 phases=3 Linecode=2c_.04 Length=15.40438 Units=m
New Line.LINE171_Cmpd_117 Bus1=171_329 Bus2=171_444 phases=3 Linecode=2c_.04 Length=5.60603 Units=m
New Line.LINE171_Cmpd_118 Bus1=171_2051 Bus2=171_2286 phases=3 Linecode=4c_.25 Length=21.65475 Units=m
New Line.LINE171_Cmpd_119 Bus1=171_2296 Bus2=171_2469 phases=3 Linecode=35_SAC_PC Length=15.84052 Units=m
New Line.LINE171_Cmpd_120 Bus1=171_142 Bus2=171_198 phases=3 Linecode=4c_.25 Length=32.18982 Units=m
New Line.LINE171_Cmpd_121 Bus1=171_265 Bus2=171_296 phases=3 Linecode=2c_.04 Length=8.1226 Units=m
New Line.LINE171_Cmpd_122 Bus1=171_534 Bus2=171_855 phases=3 Linecode=2c_.04 Length=11.61301 Units=m
New Line.LINE171_Cmpd_123 Bus1=171_1260 Bus2=171_1386 phases=3 Linecode=2c_.04 Length=13.66641 Units=m
New Line.LINE171_Cmpd_124 Bus1=171_2341 Bus2=171_2582 phases=3 Linecode=2c_.04 Length=9.93371 Units=m
New Line.LINE171_Cmpd_125 Bus1=171_2727 Bus2=171_2778 phases=3 Linecode=2c_.04 Length=2.4177 Units=m
New Line.LINE171_Cmpd_126 Bus1=171_2166 Bus2=171_2472 phases=3 Linecode=25_SAC_XC Length=12.88521 Units=m
New Line.LINE171_Cmpd_127 Bus1=171_368 Bus2=171_494 phases=3 Linecode=2c_.04 Length=5.801291 Units=m
New Line.LINE171_Cmpd_128 Bus1=171_243 Bus2=171_433 phases=3 Linecode=2c_.04 Length=14.001 Units=m
New Line.LINE171_Cmpd_129 Bus1=171_329 Bus2=171_424 phases=3 Linecode=2c_.04 Length=3.14004 Units=m
New Line.LINE171_Cmpd_130 Bus1=171_2346 Bus2=171_2603 phases=3 Linecode=2c_.04 Length=13.111895 Units=m
New Line.LINE171_Cmpd_131 Bus1=171_1128 Bus2=171_1260 phases=3 Linecode=4c_.06 Length=12.09358 Units=m
New Line.LINE171_Cmpd_132 Bus1=171_2310 Bus2=171_2398 phases=3 Linecode=2c_.04 Length=11.9089 Units=m
New Line.LINE171_Cmpd_133 Bus1=171_1789 Bus2=171_1929 phases=3 Linecode=2c_.04 Length=12.191618 Units=m
New Line.LINE171_Cmpd_134 Bus1=171_2180 Bus2=171_2237 phases=3 Linecode=3c_95_SAC_XC Length=7.0058 Units=m
New Line.LINE171_Cmpd_135 Bus1=171_2559 Bus2=171_2759 phases=3 Linecode=2c_.04 Length=13.67486 Units=m
New Line.LINE171_Cmpd_136 Bus1=171_529 Bus2=171_935 phases=3 Linecode=4c_.06 Length=41.707605 Units=m
New Line.LINE171_Cmpd_137 Bus1=171_1156 Bus2=171_1322 phases=3 Linecode=2c_.04 Length=13.804816 Units=m
New Line.LINE171_Cmpd_138 Bus1=171_2121 Bus2=171_2173 phases=3 Linecode=2c_.04 Length=14.3362 Units=m
New Line.LINE171_Cmpd_139 Bus1=171_2581 Bus2=171_2753 phases=3 Linecode=2c_.04 Length=13.14925 Units=m
New Line.LINE171_Cmpd_140 Bus1=171_868 Bus2=171_1021 phases=3 Linecode=2c_.04 Length=9.16643 Units=m
New Line.LINE171_Cmpd_141 Bus1=171_667 Bus2=171_1002 phases=3 Linecode=2c_.04 Length=21.84471 Units=m
New Line.LINE171_Cmpd_142 Bus1=171_201 Bus2=171_412 phases=3 Linecode=2c_.04 Length=11.72995 Units=m
New Line.LINE171_Cmpd_143 Bus1=171_2015 Bus2=171_2183 phases=3 Linecode=35_SAC_PC Length=16.54472 Units=m
New Line.LINE171_Cmpd_144 Bus1=171_338 Bus2=171_483 phases=3 Linecode=3c_.04 Length=6.648323 Units=m
New Line.LINE171_Cmpd_145 Bus1=171_1775 Bus2=171_1894 phases=3 Linecode=2c_.04 Length=15.130611 Units=m