New Line.LINE11_1 Bus1=11_1 Bus2=11_2 phases=3 Linecode=4c_70 Length=1.098 Units=m
New Line.LINE11_2 Bus1=11_2 Bus2=11_3 phases=3 Linecode=4c_70 Length=0.11511 Units=m
New Line.LINE11_3 Bus1=11_3 Bus2=11_4 phases=3 Linecode=4c_70 Length=0.10784 Units=m
New Line.LINE11_4 Bus1=11_4 Bus2=11_5 phases=3 Linecode=4c_70 Length=0.094021 Units=m
New Line.LINE11_5 Bus1=11_5 Bus2=11_6 phases=3 Linecode=4c_70 Length=0.14812 Units=m
New Line.LINE11_6 Bus1=11_6 Bus2=11_7 phases=3 Linecode=4c_70 Length=10.0863 Units=m
New Line.LINE11_7 Bus1=11_7 Bus2=11_8 phases=3 Linecode=4c_70 Length=0.45175 Units=m
New Line.LINE11_8 Bus1=11_8 Bus2=11_9 phases=3 Linecode=4c_70 Length=0.376 Units=m
New Line.LINE11_9 Bus1=11_9 Bus2=11_10 phases=3 Linecode=4c_70 Length=0.32997 Units=m
New Line.LINE11_10 Bus1=11_10 Bus2=11_11 phases=3 Linecode=4c_70 Length=0.24622 Units=m
New Line.LINE11_11 Bus1=11_11 Bus2=11_12 phases=3 Linecode=4c_70 Length=0.23114 Units=m
New Line.LINE11_12 Bus1=11_12 Bus2=11_13 phases=3 Linecode=4c_70 Length=0.14213 Units=m
New Line.LINE11_13 Bus1=11_13 Bus2=11_14 phases=3 Linecode=4c_70 Length=0.35384 Units=m
New Line.LINE11_14 Bus1=11_14 Bus2=11_15 phases=3 Linecode=4c_70 Length=2.8664 Units=m
New Line.LINE11_15 Bus1=11_15 Bus2=11_16 phases=3 Linecode=2c_.007 Length=0.09654 Units=m
New Line.LINE11_16 Bus1=11_15 Bus2=11_17 phases=3 Linecode=4c_70 Length=3.476 Units=m
New Line.LINE11_17 Bus1=11_16 Bus2=11_18 phases=3 Linecode=2c_.007 Length=0.044045 Units=m
New Line.LINE11_18 Bus1=11_17 Bus2=11_19 phases=3 Linecode=4c_70 Length=0.23917 Units=m
New Line.LINE11_19 Bus1=11_18 Bus2=11_20 phases=3 Linecode=2c_.007 Length=0.046174 Units=m
New Line.LINE11_20 Bus1=11_19 Bus2=11_21 phases=3 Linecode=4c_70 Length=0.26856 Units=m
New Line.LINE11_21 Bus1=11_20 Bus2=11_22 phases=3 Linecode=2c_.007 Length=0.041976 Units=m
New Line.LINE11_22 Bus1=11_21 Bus2=11_23 phases=3 Linecode=4c_70 Length=0.43727 Units=m
New Line.LINE11_23 Bus1=11_22 Bus2=11_24 phases=3 Linecode=2c_.007 Length=0.051245 Units=m
New Line.LINE11_24 Bus1=11_23 Bus2=11_25 phases=3 Linecode=4c_70 Length=0.7955 Units=m
New Line.LINE11_25 Bus1=11_24 Bus2=11_26 phases=3 Linecode=2c_.007 Length=0.055902 Units=m
New Line.LINE11_26 Bus1=11_25 Bus2=11_27 phases=3 Linecode=2c_16 Length=5.9049 Units=m
New Line.LINE11_27 Bus1=11_25 Bus2=11_28 phases=3 Linecode=4c_70 Length=9.9686 Units=m
New Line.LINE11_28 Bus1=11_26 Bus2=11_29 phases=3 Linecode=2c_.007 Length=0.054562 Units=m
New Line.LINE11_29 Bus1=11_27 Bus2=11_30 phases=3 Linecode=2c_16 Length=1.6265 Units=m
New Line.LINE11_30 Bus1=11_27 Bus2=11_31 phases=3 Linecode=2c_16 Length=1.5847 Units=m
New Line.LINE11_31 Bus1=11_28 Bus2=11_32 phases=3 Linecode=4c_70 Length=2.6538 Units=m
New Line.LINE11_32 Bus1=11_29 Bus2=11_33 phases=3 Linecode=2c_.007 Length=0.14629 Units=m
New Line.LINE11_33 Bus1=11_30 Bus2=11_34 phases=3 Linecode=2c_16 Length=3.7248 Units=m
New Line.LINE11_34 Bus1=11_31 Bus2=11_35 phases=3 Linecode=2c_16 Length=0.053666 Units=m
New Line.LINE11_35 Bus1=11_32 Bus2=11_36 phases=3 Linecode=2c_16 Length=5.7265 Units=m
New Line.LINE11_36 Bus1=11_32 Bus2=11_37 phases=3 Linecode=4c_70 Length=8.0244 Units=m
New Line.LINE11_37 Bus1=11_33 Bus2=11_38 phases=3 Linecode=2c_.007 Length=0.13648 Units=m
New Line.LINE11_38 Bus1=11_35 Bus2=11_39 phases=3 Linecode=2c_16 Length=0.077162 Units=m
New Line.LINE11_39 Bus1=11_36 Bus2=11_40 phases=3 Linecode=2c_16 Length=0.40004 Units=m
New Line.LINE11_40 Bus1=11_36 Bus2=11_41 phases=3 Linecode=2c_16 Length=1.8063 Units=m
New Line.LINE11_41 Bus1=11_37 Bus2=11_42 phases=3 Linecode=4c_70 Length=5.5684 Units=m
New Line.LINE11_42 Bus1=11_37 Bus2=11_43 phases=3 Linecode=4c_185 Length=0.21675 Units=m
New Line.LINE11_43 Bus1=11_38 Bus2=11_44 phases=3 Linecode=2c_.007 Length=0.033838 Units=m
New Line.LINE11_44 Bus1=11_39 Bus2=11_45 phases=3 Linecode=2c_16 Length=0.098955 Units=m
New Line.LINE11_45 Bus1=11_40 Bus2=11_46 phases=3 Linecode=2c_16 Length=0.18031 Units=m
New Line.LINE11_46 Bus1=11_41 Bus2=11_47 phases=3 Linecode=2c_16 Length=4.3463 Units=m
New Line.LINE11_47 Bus1=11_42 Bus2=11_48 phases=3 Linecode=4c_70 Length=4.2078 Units=m
New Line.LINE11_48 Bus1=11_43 Bus2=11_49 phases=3 Linecode=4c_185 Length=0.10436 Units=m
New Line.LINE11_49 Bus1=11_44 Bus2=11_50 phases=3 Linecode=2c_.007 Length=0.048104 Units=m
New Line.LINE11_50 Bus1=11_45 Bus2=11_51 phases=3 Linecode=2c_16 Length=0.241 Units=m
New Line.LINE11_51 Bus1=11_46 Bus2=11_52 phases=3 Linecode=2c_16 Length=0.19109 Units=m
New Line.LINE11_52 Bus1=11_48 Bus2=11_53 phases=3 Linecode=4c_70 Length=0.60668 Units=m
New Line.LINE11_53 Bus1=11_48 Bus2=11_54 phases=3 Linecode=4c_70 Length=0.63949 Units=m
New Line.LINE11_54 Bus1=11_49 Bus2=11_55 phases=3 Linecode=4c_185 Length=0.11625 Units=m
New Line.LINE11_55 Bus1=11_50 Bus2=11_56 phases=3 Linecode=2c_.007 Length=0.087664 Units=m
New Line.LINE11_56 Bus1=11_51 Bus2=11_57 phases=3 Linecode=2c_16 Length=0.20634 Units=m
New Line.LINE11_57 Bus1=11_52 Bus2=11_58 phases=3 Linecode=2c_16 Length=0.182 Units=m
New Line.LINE11_58 Bus1=11_53 Bus2=11_59 phases=3 Linecode=4c_70 Length=2.7481 Units=m
New Line.LINE11_59 Bus1=11_54 Bus2=11_60 phases=3 Linecode=4c_70 Length=0.065368 Units=m
New Line.LINE11_60 Bus1=11_55 Bus2=11_61 phases=3 Linecode=4c_185 Length=0.10028 Units=m
New Line.LINE11_61 Bus1=11_56 Bus2=11_62 phases=3 Linecode=2c_.007 Length=0.078 Units=m
New Line.LINE11_62 Bus1=11_57 Bus2=11_63 phases=3 Linecode=2c_16 Length=0.98912 Units=m
New Line.LINE11_63 Bus1=11_58 Bus2=11_64 phases=3 Linecode=2c_16 Length=0.109 Units=m
New Line.LINE11_64 Bus1=11_59 Bus2=11_65 phases=3 Linecode=4c_70 Length=0.55868 Units=m
New Line.LINE11_65 Bus1=11_59 Bus2=11_66 phases=3 Linecode=2c_16 Length=8.2583 Units=m
New Line.LINE11_66 Bus1=11_60 Bus2=11_67 phases=3 Linecode=4c_70 Length=0.074 Units=m
New Line.LINE11_67 Bus1=11_61 Bus2=11_68 phases=3 Linecode=4c_185 Length=0.096042 Units=m
New Line.LINE11_68 Bus1=11_62 Bus2=11_69 phases=3 Linecode=2c_.007 Length=0.083241 Units=m
New Line.LINE11_69 Bus1=11_63 Bus2=11_70 phases=3 Linecode=2c_16 Length=3.4962 Units=m
New Line.LINE11_70 Bus1=11_64 Bus2=11_71 phases=3 Linecode=2c_16 Length=0.21385 Units=m
New Line.LINE11_71 Bus1=11_65 Bus2=11_72 phases=3 Linecode=4c_70 Length=6.6006 Units=m
New Line.LINE11_72 Bus1=11_66 Bus2=11_73 phases=3 Linecode=2c_16 Length=4.0366 Units=m
New Line.LINE11_73 Bus1=11_66 Bus2=11_74 phases=3 Linecode=2c_16 Length=4.0366 Units=m
New Line.LINE11_74 Bus1=11_67 Bus2=11_75 phases=3 Linecode=4c_70 Length=0.17951 Units=m
New Line.LINE11_75 Bus1=11_68 Bus2=11_76 phases=3 Linecode=4c_185 Length=0.23551 Units=m
New Line.LINE11_76 Bus1=11_69 Bus2=11_77 phases=3 Linecode=2c_.007 Length=0.38907 Units=m
New Line.LINE11_77 Bus1=11_71 Bus2=11_78 phases=3 Linecode=2c_16 Length=1.0838 Units=m
New Line.LINE11_78 Bus1=11_72 Bus2=11_79 phases=3 Linecode=4c_70 Length=2.3008 Units=m
New Line.LINE11_79 Bus1=11_75 Bus2=11_80 phases=3 Linecode=4c_70 Length=0.10362 Units=m
New Line.LINE11_80 Bus1=11_76 Bus2=11_81 phases=3 Linecode=4c_185 Length=0.7469 Units=m
New Line.LINE11_81 Bus1=11_77 Bus2=11_82 phases=3 Linecode=2c_.007 Length=0.51088 Units=m
New Line.LINE11_82 Bus1=11_78 Bus2=11_83 phases=3 Linecode=2c_16 Length=4.084 Units=m
New Line.LINE11_83 Bus1=11_79 Bus2=11_84 phases=3 Linecode=4c_70 Length=0.50211 Units=m
New Line.LINE11_84 Bus1=11_80 Bus2=11_85 phases=3 Linecode=4c_70 Length=0.11122 Units=m
New Line.LINE11_85 Bus1=11_81 Bus2=11_86 phases=3 Linecode=4c_185 Length=1.4388 Units=m
New Line.LINE11_86 Bus1=11_82 Bus2=11_87 phases=3 Linecode=2c_.007 Length=0.31045 Units=m
New Line.LINE11_87 Bus1=11_84 Bus2=11_88 phases=3 Linecode=4c_70 Length=1.0182 Units=m
New Line.LINE11_88 Bus1=11_85 Bus2=11_89 phases=3 Linecode=4c_70 Length=0.1048 Units=m
New Line.LINE11_89 Bus1=11_86 Bus2=11_90 phases=3 Linecode=4c_185 Length=0.34251 Units=m
New Line.LINE11_90 Bus1=11_87 Bus2=11_91 phases=3 Linecode=2c_.007 Length=0.11206 Units=m
New Line.LINE11_91 Bus1=11_88 Bus2=11_92 phases=3 Linecode=4c_70 Length=0.96021 Units=m
New Line.LINE11_92 Bus1=11_90 Bus2=11_93 phases=3 Linecode=4c_185 Length=0.065307 Units=m
New Line.LINE11_93 Bus1=11_91 Bus2=11_94 phases=3 Linecode=2c_.007 Length=0.034785 Units=m
New Line.LINE11_94 Bus1=11_92 Bus2=11_95 phases=3 Linecode=4c_70 Length=0.55811 Units=m
New Line.LINE11_95 Bus1=11_93 Bus2=11_96 phases=3 Linecode=4c_185 Length=0.086052 Units=m
New Line.LINE11_96 Bus1=11_94 Bus2=11_97 phases=3 Linecode=2c_.007 Length=0.03677 Units=m
New Line.LINE11_97 Bus1=11_95 Bus2=11_98 phases=3 Linecode=4c_70 Length=0.36859 Units=m
New Line.LINE11_98 Bus1=11_96 Bus2=11_99 phases=3 Linecode=4c_185 Length=0.037216 Units=m
New Line.LINE11_99 Bus1=11_97 Bus2=11_100 phases=3 Linecode=2c_.007 Length=0.089588 Units=m
New Line.LINE11_100 Bus1=11_98 Bus2=11_101 phases=3 Linecode=4c_70 Length=0.50892 Units=m
New Line.LINE11_101 Bus1=11_99 Bus2=11_102 phases=3 Linecode=4c_185 Length=5.0819 Units=m
New Line.LINE11_102 Bus1=11_100 Bus2=11_103 phases=3 Linecode=2c_.007 Length=0.28583 Units=m
New Line.LINE11_103 Bus1=11_101 Bus2=11_104 phases=3 Linecode=4c_.35 Length=0.28838 Units=m
New Line.LINE11_104 Bus1=11_101 Bus2=11_105 phases=3 Linecode=4c_70 Length=0.33602 Units=m
New Line.LINE11_105 Bus1=11_102 Bus2=11_106 phases=3 Linecode=4c_185 Length=0.22108 Units=m
New Line.LINE11_106 Bus1=11_104 Bus2=11_107 phases=3 Linecode=4c_.35 Length=0.3489 Units=m
New Line.LINE11_107 Bus1=11_105 Bus2=11_108 phases=3 Linecode=4c_70 Length=0.19054 Units=m
New Line.LINE11_108 Bus1=11_106 Bus2=11_109 phases=3 Linecode=4c_185 Length=0.45085 Units=m
New Line.LINE11_109 Bus1=11_107 Bus2=11_110 phases=3 Linecode=4c_.35 Length=0.4044 Units=m
New Line.LINE11_110 Bus1=11_108 Bus2=11_111 phases=3 Linecode=4c_70 Length=7.5182 Units=m
New Line.LINE11_111 Bus1=11_109 Bus2=11_112 phases=3 Linecode=4c_185 Length=11.9766 Units=m
New Line.LINE11_112 Bus1=11_110 Bus2=11_113 phases=3 Linecode=4c_.35 Length=0.61659 Units=m
New Line.LINE11_113 Bus1=11_111 Bus2=11_114 phases=3 Linecode=4c_70 Length=0.75316 Units=m
New Line.LINE11_114 Bus1=11_112 Bus2=11_115 phases=3 Linecode=4c_185 Length=10.6613 Units=m
New Line.LINE11_115 Bus1=11_113 Bus2=11_116 phases=3 Linecode=4c_.35 Length=0.79271 Units=m
New Line.LINE11_116 Bus1=11_114 Bus2=11_117 phases=3 Linecode=4c_.35 Length=1.1056 Units=m
New Line.LINE11_117 Bus1=11_114 Bus2=11_118 phases=3 Linecode=4c_.1 Length=3.6556 Units=m
New Line.LINE11_118 Bus1=11_115 Bus2=11_119 phases=3 Linecode=4c_185 Length=0.99464 Units=m
New Line.LINE11_119 Bus1=11_116 Bus2=11_120 phases=3 Linecode=4c_.35 Length=0.56909 Units=m
New Line.LINE11_120 Bus1=11_117 Bus2=11_121 phases=3 Linecode=2c_.007 Length=0.19481 Units=m
New Line.LINE11_121 Bus1=11_117 Bus2=11_122 phases=3 Linecode=4c_.35 Length=0.53831 Units=m
New Line.LINE11_122 Bus1=11_118 Bus2=11_123 phases=3 Linecode=4c_.1 Length=6.5924 Units=m
New Line.LINE11_123 Bus1=11_119 Bus2=11_124 phases=3 Linecode=4c_185 Length=0.7248 Units=m
New Line.LINE11_124 Bus1=11_120 Bus2=11_125 phases=3 Linecode=4c_.35 Length=0.80412 Units=m
New Line.LINE11_125 Bus1=11_121 Bus2=11_126 phases=3 Linecode=2c_.007 Length=0.16869 Units=m
New Line.LINE11_126 Bus1=11_122 Bus2=11_127 phases=3 Linecode=4c_.35 Length=2.5288 Units=m
New Line.LINE11_127 Bus1=11_123 Bus2=11_128 phases=3 Linecode=4c_.1 Length=2.9646 Units=m
New Line.LINE11_128 Bus1=11_124 Bus2=11_129 phases=3 Linecode=4c_185 Length=0.62512 Units=m
New Line.LINE11_129 Bus1=11_125 Bus2=11_130 phases=3 Linecode=4c_.35 Length=0.87 Units=m
New Line.LINE11_130 Bus1=11_126 Bus2=11_131 phases=3 Linecode=2c_.007 Length=0.11915 Units=m
New Line.LINE11_131 Bus1=11_127 Bus2=11_132 phases=3 Linecode=2c_16 Length=3.8212 Units=m
New Line.LINE11_132 Bus1=11_127 Bus2=11_133 phases=3 Linecode=4c_.35 Length=7.1782 Units=m
New Line.LINE11_133 Bus1=11_128 Bus2=11_134 phases=3 Linecode=4c_.1 Length=0.88205 Units=m
New Line.LINE11_134 Bus1=11_129 Bus2=11_135 phases=3 Linecode=4c_185 Length=1.9203 Units=m
New Line.LINE11_135 Bus1=11_130 Bus2=11_136 phases=3 Linecode=4c_.35 Length=0.82048 Units=m
New Line.LINE11_136 Bus1=11_131 Bus2=11_137 phases=3 Linecode=2c_.007 Length=0.18436 Units=m
New Line.LINE11_137 Bus1=11_132 Bus2=11_138 phases=3 Linecode=2c_16 Length=0.32908 Units=m
New Line.LINE11_138 Bus1=11_133 Bus2=11_139 phases=3 Linecode=4c_.35 Length=5.3402 Units=m
New Line.LINE11_139 Bus1=11_134 Bus2=11_140 phases=3 Linecode=4c_.1 Length=0.99566 Units=m
New Line.LINE11_140 Bus1=11_135 Bus2=11_141 phases=3 Linecode=4c_185 Length=1.4127 Units=m
New Line.LINE11_141 Bus1=11_136 Bus2=11_142 phases=3 Linecode=4c_.35 Length=1.349 Units=m
New Line.LINE11_142 Bus1=11_137 Bus2=11_143 phases=3 Linecode=2c_.007 Length=0.21781 Units=m
New Line.LINE11_143 Bus1=11_138 Bus2=11_144 phases=3 Linecode=2c_16 Length=0.32289 Units=m
New Line.LINE11_144 Bus1=11_139 Bus2=11_145 phases=3 Linecode=4c_.35 Length=3.5762 Units=m
New Line.LINE11_145 Bus1=11_140 Bus2=11_146 phases=3 Linecode=4c_.1 Length=0.9364 Units=m
New Line.LINE11_146 Bus1=11_141 Bus2=11_147 phases=3 Linecode=4c_185 Length=0.24053 Units=m
New Line.LINE11_147 Bus1=11_142 Bus2=11_148 phases=3 Linecode=4c_.35 Length=6.4142 Units=m
New Line.LINE11_148 Bus1=11_143 Bus2=11_149 phases=3 Linecode=2c_.007 Length=0.19401 Units=m
New Line.LINE11_149 Bus1=11_144 Bus2=11_150 phases=3 Linecode=2c_16 Length=0.26072 Units=m
New Line.LINE11_150 Bus1=11_145 Bus2=11_151 phases=3 Linecode=4c_.35 Length=3.5713 Units=m
New Line.LINE11_151 Bus1=11_145 Bus2=11_152 phases=3 Linecode=2c_16 Length=5.1314 Units=m
New Line.LINE11_152 Bus1=11_146 Bus2=11_153 phases=3 Linecode=4c_.1 Length=1.0926 Units=m
New Line.LINE11_153 Bus1=11_147 Bus2=11_154 phases=3 Linecode=4c_185 Length=0.083096 Units=m
New Line.LINE11_154 Bus1=11_148 Bus2=11_155 phases=3 Linecode=4c_.35 Length=1.3973 Units=m
New Line.LINE11_155 Bus1=11_149 Bus2=11_156 phases=3 Linecode=2c_.007 Length=0.2191 Units=m
New Line.LINE11_156 Bus1=11_150 Bus2=11_157 phases=3 Linecode=2c_16 Length=0.39132 Units=m
New Line.LINE11_157 Bus1=11_151 Bus2=11_158 phases=3 Linecode=4c_.35 Length=9.4713 Units=m
New Line.LINE11_158 Bus1=11_152 Bus2=11_159 phases=3 Linecode=2c_16 Length=0.31233 Units=m
New Line.LINE11_159 Bus1=11_153 Bus2=11_160 phases=3 Linecode=4c_.1 Length=0.31439 Units=m
New Line.LINE11_160 Bus1=11_154 Bus2=11_161 phases=3 Linecode=4c_185 Length=0.12256 Units=m
New Line.LINE11_161 Bus1=11_155 Bus2=11_162 phases=3 Linecode=2c_16 Length=11.7422 Units=m
New Line.LINE11_162 Bus1=11_155 Bus2=11_163 phases=3 Linecode=4c_.35 Length=5.2844 Units=m
New Line.LINE11_163 Bus1=11_156 Bus2=11_164 phases=3 Linecode=2c_.007 Length=0.20342 Units=m
New Line.LINE11_164 Bus1=11_157 Bus2=11_165 phases=3 Linecode=2c_16 Length=0.47178 Units=m
New Line.LINE11_165 Bus1=11_158 Bus2=11_166 phases=3 Linecode=4c_.35 Length=3.2899 Units=m
New Line.LINE11_166 Bus1=11_159 Bus2=11_167 phases=3 Linecode=2c_16 Length=0.28533 Units=m
New Line.LINE11_167 Bus1=11_160 Bus2=11_168 phases=3 Linecode=4c_.1 Length=1.7861 Units=m
New Line.LINE11_168 Bus1=11_161 Bus2=11_169 phases=3 Linecode=4c_185 Length=0.24958 Units=m
New Line.LINE11_169 Bus1=11_162 Bus2=11_170 phases=3 Linecode=2c_16 Length=2.2183 Units=m
New Line.LINE11_170 Bus1=11_163 Bus2=11_171 phases=3 Linecode=4c_.35 Length=7.0156 Units=m
New Line.LINE11_171 Bus1=11_164 Bus2=11_172 phases=3 Linecode=2c_.007 Length=0.1727 Units=m
New Line.LINE11_172 Bus1=11_165 Bus2=11_173 phases=3 Linecode=2c_16 Length=0.35642 Units=m
New Line.LINE11_173 Bus1=11_166 Bus2=11_174 phases=3 Linecode=4c_.35 Length=3.9183 Units=m
New Line.LINE11_174 Bus1=11_166 Bus2=11_175 phases=3 Linecode=2c_16 Length=4.2045 Units=m
New Line.LINE11_175 Bus1=11_167 Bus2=11_176 phases=3 Linecode=2c_16 Length=0.11853 Units=m
New Line.LINE11_176 Bus1=11_168 Bus2=11_177 phases=3 Linecode=4c_.1 Length=1.0088 Units=m
New Line.LINE11_177 Bus1=11_170 Bus2=11_178 phases=3 Linecode=2c_16 Length=4.5768 Units=m
New Line.LINE11_178 Bus1=11_171 Bus2=11_179 phases=3 Linecode=4c_.35 Length=1.1818 Units=m
New Line.LINE11_179 Bus1=11_171 Bus2=11_180 phases=3 Linecode=2c_16 Length=2.4224 Units=m
New Line.LINE11_180 Bus1=11_172 Bus2=11_181 phases=3 Linecode=2c_.007 Length=0.17961 Units=m
New Line.LINE11_181 Bus1=11_173 Bus2=11_182 phases=3 Linecode=2c_16 Length=0.41244 Units=m
New Line.LINE11_182 Bus1=11_174 Bus2=11_183 phases=3 Linecode=4c_.35 Length=0.58763 Units=m
New Line.LINE11_183 Bus1=11_175 Bus2=11_184 phases=3 Linecode=2c_16 Length=0.45409 Units=m
New Line.LINE11_184 Bus1=11_176 Bus2=11_185 phases=3 Linecode=2c_16 Length=0.25549 Units=m
New Line.LINE11_185 Bus1=11_177 Bus2=11_186 phases=3 Linecode=4c_.1 Length=0.74886 Units=m
New Line.LINE11_186 Bus1=11_179 Bus2=11_187 phases=3 Linecode=4c_.35 Length=4.6507 Units=m
New Line.LINE11_187 Bus1=11_180 Bus2=11_188 phases=3 Linecode=2c_16 Length=10.0258 Units=m
New Line.LINE11_188 Bus1=11_181 Bus2=11_189 phases=3 Linecode=2c_.007 Length=0.15412 Units=m
New Line.LINE11_189 Bus1=11_182 Bus2=11_190 phases=3 Linecode=2c_16 Length=0.3878 Units=m
New Line.LINE11_190 Bus1=11_183 Bus2=11_191 phases=3 Linecode=4c_.35 Length=2.3151 Units=m
New Line.LINE11_191 Bus1=11_183 Bus2=11_192 phases=3 Linecode=4c_.35 Length=0.27791 Units=m
New Line.LINE11_192 Bus1=11_184 Bus2=11_193 phases=3 Linecode=2c_16 Length=0.43923 Units=m
New Line.LINE11_193 Bus1=11_185 Bus2=11_194 phases=3 Linecode=2c_16 Length=0.65073 Units=m
New Line.LINE11_194 Bus1=11_186 Bus2=11_195 phases=3 Linecode=4c_.1 Length=0.67326 Units=m
New Line.LINE11_195 Bus1=11_187 Bus2=11_196 phases=3 Linecode=4c_.35 Length=8.3036 Units=m
New Line.LINE11_196 Bus1=11_188 Bus2=11_197 phases=3 Linecode=2c_16 Length=1.9595 Units=m
New Line.LINE11_197 Bus1=11_188 Bus2=11_198 phases=3 Linecode=2c_16 Length=1.1325 Units=m
New Line.LINE11_198 Bus1=11_189 Bus2=11_199 phases=3 Linecode=2c_.007 Length=0.19148 Units=m
New Line.LINE11_199 Bus1=11_190 Bus2=11_200 phases=3 Linecode=2c_16 Length=0.41725 Units=m
New Line.LINE11_200 Bus1=11_191 Bus2=11_201 phases=3 Linecode=4c_.35 Length=0.9314 Units=m
New Line.LINE11_201 Bus1=11_192 Bus2=11_202 phases=3 Linecode=4c_.35 Length=0.16447 Units=m
New Line.LINE11_202 Bus1=11_193 Bus2=11_203 phases=3 Linecode=2c_16 Length=0.35134 Units=m
New Line.LINE11_203 Bus1=11_194 Bus2=11_204 phases=3 Linecode=2c_16 Length=0.38178 Units=m
New Line.LINE11_204 Bus1=11_195 Bus2=11_205 phases=3 Linecode=4c_.1 Length=0.83638 Units=m
New Line.LINE11_205 Bus1=11_196 Bus2=11_206 phases=3 Linecode=2c_16 Length=3.2475 Units=m
New Line.LINE11_206 Bus1=11_196 Bus2=11_207 phases=3 Linecode=4c_.35 Length=2.1371 Units=m
New Line.LINE11_207 Bus1=11_197 Bus2=11_208 phases=3 Linecode=2c_16 Length=4.9541 Units=m
New Line.LINE11_208 Bus1=11_198 Bus2=11_209 phases=3 Linecode=2c_16 Length=0.16008 Units=m
New Line.LINE11_209 Bus1=11_199 Bus2=11_210 phases=3 Linecode=2c_.007 Length=0.44838 Units=m
New Line.LINE11_210 Bus1=11_200 Bus2=11_211 phases=3 Linecode=2c_16 Length=0.63785 Units=m
New Line.LINE11_211 Bus1=11_202 Bus2=11_212 phases=3 Linecode=4c_.35 Length=0.15526 Units=m
New Line.LINE11_212 Bus1=11_203 Bus2=11_213 phases=3 Linecode=2c_16 Length=0.27987 Units=m
New Line.LINE11_213 Bus1=11_204 Bus2=11_214 phases=3 Linecode=2c_16 Length=0.2674 Units=m
New Line.LINE11_214 Bus1=11_205 Bus2=11_215 phases=3 Linecode=4c_.1 Length=1.5434 Units=m
New Line.LINE11_215 Bus1=11_206 Bus2=11_216 phases=3 Linecode=2c_16 Length=10.6295 Units=m
New Line.LINE11_216 Bus1=11_207 Bus2=11_217 phases=3 Linecode=4c_.35 Length=3.8571 Units=m
New Line.LINE11_217 Bus1=11_209 Bus2=11_218 phases=3 Linecode=2c_16 Length=0.1291 Units=m
New Line.LINE11_218 Bus1=11_210 Bus2=11_219 phases=3 Linecode=2c_.007 Length=0.67215 Units=m
New Line.LINE11_219 Bus1=11_211 Bus2=11_220 phases=3 Linecode=2c_16 Length=1.7419 Units=m
New Line.LINE11_220 Bus1=11_212 Bus2=11_221 phases=3 Linecode=4c_.35 Length=0.17006 Units=m
New Line.LINE11_221 Bus1=11_213 Bus2=11_222 phases=3 Linecode=2c_16 Length=0.59169 Units=m
New Line.LINE11_222 Bus1=11_214 Bus2=11_223 phases=3 Linecode=2c_16 Length=0.51437 Units=m
New Line.LINE11_223 Bus1=11_215 Bus2=11_224 phases=3 Linecode=4c_.1 Length=1.3456 Units=m
New Line.LINE11_224 Bus1=11_216 Bus2=11_225 phases=3 Linecode=2c_16 Length=4.5822 Units=m
New Line.LINE11_225 Bus1=11_217 Bus2=11_226 phases=3 Linecode=4c_.35 Length=1.3772 Units=m
New Line.LINE11_226 Bus1=11_218 Bus2=11_227 phases=3 Linecode=2c_16 Length=0.10317 Units=m
New Line.LINE11_227 Bus1=11_220 Bus2=11_228 phases=3 Linecode=2c_16 Length=0.14852 Units=m
New Line.LINE11_228 Bus1=11_221 Bus2=11_229 phases=3 Linecode=4c_.35 Length=0.23273 Units=m
New Line.LINE11_229 Bus1=11_222 Bus2=11_230 phases=3 Linecode=2c_16 Length=0.46597 Units=m
New Line.LINE11_230 Bus1=11_223 Bus2=11_231 phases=3 Linecode=2c_16 Length=0.25602 Units=m
New Line.LINE11_231 Bus1=11_224 Bus2=11_232 phases=3 Linecode=4c_.1 Length=0.91534 Units=m
New Line.LINE11_232 Bus1=11_226 Bus2=11_233 phases=3 Linecode=2c_16 Length=11.8949 Units=m
New Line.LINE11_233 Bus1=11_226 Bus2=11_234 phases=3 Linecode=4c_.35 Length=1.1273 Units=m
New Line.LINE11_234 Bus1=11_227 Bus2=11_235 phases=3 Linecode=2c_16 Length=0.15749 Units=m
New Line.LINE11_235 Bus1=11_228 Bus2=11_236 phases=3 Linecode=2c_16 Length=0.0686 Units=m
New Line.LINE11_236 Bus1=11_229 Bus2=11_237 phases=3 Linecode=4c_.35 Length=0.20742 Units=m
New Line.LINE11_237 Bus1=11_230 Bus2=11_238 phases=3 Linecode=2c_16 Length=0.32322 Units=m
New Line.LINE11_238 Bus1=11_231 Bus2=11_239 phases=3 Linecode=2c_16 Length=0.18179 Units=m
New Line.LINE11_239 Bus1=11_232 Bus2=11_240 phases=3 Linecode=4c_.1 Length=0.6013 Units=m
New Line.LINE11_240 Bus1=11_233 Bus2=11_241 phases=3 Linecode=2c_16 Length=1.7274 Units=m
New Line.LINE11_241 Bus1=11_235 Bus2=11_242 phases=3 Linecode=2c_16 Length=0.18461 Units=m
New Line.LINE11_242 Bus1=11_236 Bus2=11_243 phases=3 Linecode=2c_16 Length=0.073376 Units=m
New Line.LINE11_243 Bus1=11_237 Bus2=11_244 phases=3 Linecode=4c_.35 Length=0.16881 Units=m
New Line.LINE11_244 Bus1=11_238 Bus2=11_245 phases=3 Linecode=2c_16 Length=0.32245 Units=m
New Line.LINE11_245 Bus1=11_239 Bus2=11_246 phases=3 Linecode=2c_16 Length=2.0796 Units=m
New Line.LINE11_246 Bus1=11_240 Bus2=11_247 phases=3 Linecode=4c_.1 Length=1.2941 Units=m
New Line.LINE11_247 Bus1=11_241 Bus2=11_248 phases=3 Linecode=2c_16 Length=5.3022 Units=m
New Line.LINE11_248 Bus1=11_241 Bus2=11_249 phases=3 Linecode=2c_16 Length=5.3022 Units=m
New Line.LINE11_249 Bus1=11_242 Bus2=11_250 phases=3 Linecode=2c_16 Length=0.28355 Units=m
New Line.LINE11_250 Bus1=11_243 Bus2=11_251 phases=3 Linecode=2c_16 Length=0.070114 Units=m
New Line.LINE11_251 Bus1=11_244 Bus2=11_252 phases=3 Linecode=4c_.35 Length=0.13297 Units=m
New Line.LINE11_252 Bus1=11_245 Bus2=11_253 phases=3 Linecode=2c_16 Length=0.47173 Units=m
New Line.LINE11_253 Bus1=11_246 Bus2=11_254 phases=3 Linecode=2c_16 Length=0.61324 Units=m
New Line.LINE11_254 Bus1=11_247 Bus2=11_255 phases=3 Linecode=2c_16 Length=4.5618 Units=m
New Line.LINE11_255 Bus1=11_247 Bus2=11_256 phases=3 Linecode=4c_.1 Length=0.85678 Units=m
New Line.LINE11_256 Bus1=11_250 Bus2=11_257 phases=3 Linecode=2c_16 Length=1.0376 Units=m
New Line.LINE11_257 Bus1=11_251 Bus2=11_258 phases=3 Linecode=2c_16 Length=0.07811 Units=m
New Line.LINE11_258 Bus1=11_252 Bus2=11_259 phases=3 Linecode=4c_.35 Length=0.17323 Units=m
New Line.LINE11_259 Bus1=11_253 Bus2=11_260 phases=3 Linecode=2c_16 Length=1.7742 Units=m
New Line.LINE11_260 Bus1=11_254 Bus2=11_261 phases=3 Linecode=2c_16 Length=0.1372 Units=m
New Line.LINE11_261 Bus1=11_255 Bus2=11_262 phases=3 Linecode=2c_16 Length=0.6306 Units=m
New Line.LINE11_262 Bus1=11_256 Bus2=11_263 phases=3 Linecode=4c_.1 Length=3.2128 Units=m
New Line.LINE11_263 Bus1=11_257 Bus2=11_264 phases=3 Linecode=2c_16 Length=5.05 Units=m
New Line.LINE11_264 Bus1=11_258 Bus2=11_265 phases=3 Linecode=2c_16 Length=0.16123 Units=m
New Line.LINE11_265 Bus1=11_259 Bus2=11_266 phases=3 Linecode=4c_.35 Length=0.19436 Units=m
New Line.LINE11_266 Bus1=11_260 Bus2=11_267 phases=3 Linecode=2c_16 Length=0.4141 Units=m
New Line.LINE11_267 Bus1=11_261 Bus2=11_268 phases=3 Linecode=2c_16 Length=3.4578 Units=m
New Line.LINE11_268 Bus1=11_261 Bus2=11_269 phases=3 Linecode=2c_16 Length=0.11871 Units=m
New Line.LINE11_269 Bus1=11_262 Bus2=11_270 phases=3 Linecode=2c_16 Length=0.28991 Units=m
New Line.LINE11_270 Bus1=11_263 Bus2=11_271 phases=3 Linecode=2c_16 Length=4.2547 Units=m
New Line.LINE11_271 Bus1=11_263 Bus2=11_272 phases=3 Linecode=4c_.1 Length=1.0792 Units=m
New Line.LINE11_272 Bus1=11_265 Bus2=11_273 phases=3 Linecode=2c_16 Length=0.16792 Units=m
New Line.LINE11_273 Bus1=11_266 Bus2=11_274 phases=3 Linecode=4c_.35 Length=0.17888 Units=m
New Line.LINE11_274 Bus1=11_267 Bus2=11_275 phases=3 Linecode=2c_16 Length=0.18971 Units=m
New Line.LINE11_275 Bus1=11_268 Bus2=11_276 phases=3 Linecode=2c_16 Length=3.4268 Units=m
New Line.LINE11_276 Bus1=11_269 Bus2=11_277 phases=3 Linecode=2c_16 Length=0.13918 Units=m
New Line.LINE11_277 Bus1=11_270 Bus2=11_278 phases=3 Linecode=2c_16 Length=0.34433 Units=m
New Line.LINE11_278 Bus1=11_271 Bus2=11_279 phases=3 Linecode=2c_16 Length=0.30927 Units=m
New Line.LINE11_279 Bus1=11_272 Bus2=11_280 phases=3 Linecode=4c_.1 Length=3.9121 Units=m
New Line.LINE11_280 Bus1=11_273 Bus2=11_281 phases=3 Linecode=2c_16 Length=0.63854 Units=m
New Line.LINE11_281 Bus1=11_274 Bus2=11_282 phases=3 Linecode=4c_.35 Length=0.60542 Units=m
New Line.LINE11_282 Bus1=11_275 Bus2=11_283 phases=3 Linecode=2c_16 Length=0.12472 Units=m
New Line.LINE11_283 Bus1=11_277 Bus2=11_284 phases=3 Linecode=2c_16 Length=0.12578 Units=m
New Line.LINE11_284 Bus1=11_278 Bus2=11_285 phases=3 Linecode=2c_16 Length=0.53126 Units=m
New Line.LINE11_285 Bus1=11_279 Bus2=11_286 phases=3 Linecode=2c_16 Length=0.25491 Units=m
New Line.LINE11_286 Bus1=11_280 Bus2=11_287 phases=3 Linecode=4c_.06 Length=1.7542 Units=m
New Line.LINE11_287 Bus1=11_280 Bus2=11_288 phases=3 Linecode=4c_.1 Length=0.91306 Units=m
New Line.LINE11_288 Bus1=11_281 Bus2=11_289 phases=3 Linecode=2c_16 Length=3.3901 Units=m
New Line.LINE11_289 Bus1=11_282 Bus2=11_290 phases=3 Linecode=4c_.35 Length=0.81044 Units=m
New Line.LINE11_290 Bus1=11_283 Bus2=11_291 phases=3 Linecode=2c_16 Length=0.87618 Units=m
New Line.LINE11_291 Bus1=11_283 Bus2=11_292 phases=3 Linecode=2c_16 Length=0.10807 Units=m
New Line.LINE11_292 Bus1=11_284 Bus2=11_293 phases=3 Linecode=2c_16 Length=0.12739 Units=m
New Line.LINE11_293 Bus1=11_285 Bus2=11_294 phases=3 Linecode=2c_16 Length=0.47339 Units=m
New Line.LINE11_294 Bus1=11_286 Bus2=11_295 phases=3 Linecode=2c_16 Length=0.36208 Units=m
New Line.LINE11_295 Bus1=11_287 Bus2=11_296 phases=3 Linecode=4c_.06 Length=0.80742 Units=m
New Line.LINE11_296 Bus1=11_288 Bus2=11_297 phases=3 Linecode=4c_.1 Length=3.8266 Units=m
New Line.LINE11_297 Bus1=11_291 Bus2=11_298 phases=3 Linecode=2c_16 Length=0.40248 Units=m
New Line.LINE11_298 Bus1=11_292 Bus2=11_299 phases=3 Linecode=2c_16 Length=0.076485 Units=m
New Line.LINE11_299 Bus1=11_293 Bus2=11_300 phases=3 Linecode=2c_16 Length=0.13697 Units=m
New Line.LINE11_300 Bus1=11_294 Bus2=11_301 phases=3 Linecode=2c_16 Length=0.36805 Units=m
New Line.LINE11_301 Bus1=11_295 Bus2=11_302 phases=3 Linecode=2c_16 Length=1.6263 Units=m
New Line.LINE11_302 Bus1=11_296 Bus2=11_303 phases=3 Linecode=4c_.06 Length=5.2746 Units=m
New Line.LINE11_303 Bus1=11_297 Bus2=11_304 phases=3 Linecode=4c_.1 Length=0.84468 Units=m
New Line.LINE11_304 Bus1=11_298 Bus2=11_305 phases=3 Linecode=2c_16 Length=0.68119 Units=m
New Line.LINE11_305 Bus1=11_299 Bus2=11_306 phases=3 Linecode=2c_16 Length=0.089006 Units=m
New Line.LINE11_306 Bus1=11_300 Bus2=11_307 phases=3 Linecode=2c_16 Length=0.79435 Units=m
New Line.LINE11_307 Bus1=11_301 Bus2=11_308 phases=3 Linecode=2c_16 Length=0.45813 Units=m
New Line.LINE11_308 Bus1=11_302 Bus2=11_309 phases=3 Linecode=2c_16 Length=0.31308 Units=m
New Line.LINE11_309 Bus1=11_303 Bus2=11_310 phases=3 Linecode=4c_.06 Length=0.39397 Units=m
New Line.LINE11_310 Bus1=11_304 Bus2=11_311 phases=3 Linecode=4c_.1 Length=0.28067 Units=m
New Line.LINE11_311 Bus1=11_305 Bus2=11_312 phases=3 Linecode=2c_16 Length=1.3075 Units=m
New Line.LINE11_312 Bus1=11_306 Bus2=11_313 phases=3 Linecode=2c_16 Length=0.17024 Units=m
New Line.LINE11_313 Bus1=11_307 Bus2=11_314 phases=3 Linecode=2c_16 Length=3.3598 Units=m
New Line.LINE11_314 Bus1=11_308 Bus2=11_315 phases=3 Linecode=2c_16 Length=0.47384 Units=m
New Line.LINE11_315 Bus1=11_309 Bus2=11_316 phases=3 Linecode=2c_16 Length=0.23181 Units=m
New Line.LINE11_316 Bus1=11_310 Bus2=11_317 phases=3 Linecode=2c_16 Length=0.64903 Units=m
New Line.LINE11_317 Bus1=11_310 Bus2=11_318 phases=3 Linecode=4c_.06 Length=7.2163 Units=m
New Line.LINE11_318 Bus1=11_311 Bus2=11_319 phases=3 Linecode=4c_.1 Length=0.14649 Units=m
New Line.LINE11_319 Bus1=11_312 Bus2=11_320 phases=3 Linecode=2c_16 Length=3.8495 Units=m
New Line.LINE11_320 Bus1=11_313 Bus2=11_321 phases=3 Linecode=2c_16 Length=0.6529 Units=m
New Line.LINE11_321 Bus1=11_315 Bus2=11_322 phases=3 Linecode=2c_16 Length=0.55892 Units=m
New Line.LINE11_322 Bus1=11_316 Bus2=11_323 phases=3 Linecode=2c_16 Length=0.26702 Units=m
New Line.LINE11_323 Bus1=11_317 Bus2=11_324 phases=3 Linecode=2c_16 Length=3.3427 Units=m
New Line.LINE11_324 Bus1=11_318 Bus2=11_325 phases=3 Linecode=4c_.06 Length=3.4631 Units=m
New Line.LINE11_325 Bus1=11_319 Bus2=11_326 phases=3 Linecode=4c_.1 Length=0.1254 Units=m
New Line.LINE11_326 Bus1=11_321 Bus2=11_327 phases=3 Linecode=2c_16 Length=2.2281 Units=m
New Line.LINE11_327 Bus1=11_322 Bus2=11_328 phases=3 Linecode=2c_16 Length=0.31851 Units=m
New Line.LINE11_328 Bus1=11_323 Bus2=11_329 phases=3 Linecode=2c_16 Length=0.26488 Units=m
New Line.LINE11_329 Bus1=11_324 Bus2=11_330 phases=3 Linecode=2c_16 Length=1.167 Units=m
New Line.LINE11_330 Bus1=11_325 Bus2=11_331 phases=3 Linecode=2c_16 Length=9.1332 Units=m
New Line.LINE11_331 Bus1=11_325 Bus2=11_332 phases=3 Linecode=4c_.06 Length=6.6729 Units=m
New Line.LINE11_332 Bus1=11_326 Bus2=11_333 phases=3 Linecode=4c_.1 Length=0.14262 Units=m