New Line.LINE183_1 Bus1=183_1 Bus2=183_2 phases=3 Linecode=4c_.1 Length=0.1009 Units=m
New Line.LINE183_2 Bus1=183_2 Bus2=183_3 phases=3 Linecode=4c_.1 Length=0.10485 Units=m
New Line.LINE183_3 Bus1=183_3 Bus2=183_4 phases=3 Linecode=4c_.1 Length=0.083485 Units=m
New Line.LINE183_4 Bus1=183_4 Bus2=183_5 phases=3 Linecode=4c_.1 Length=0.05413 Units=m
New Line.LINE183_5 Bus1=183_5 Bus2=183_6 phases=3 Linecode=4c_.1 Length=0.076655 Units=m
New Line.LINE183_6 Bus1=183_6 Bus2=183_7 phases=3 Linecode=4c_.1 Length=0.079907 Units=m
New Line.LINE183_7 Bus1=183_7 Bus2=183_8 phases=3 Linecode=4c_.1 Length=0.062394 Units=m
New Line.LINE183_8 Bus1=183_8 Bus2=183_9 phases=3 Linecode=4c_.1 Length=0.17982 Units=m
New Line.LINE183_9 Bus1=183_9 Bus2=183_10 phases=3 Linecode=4c_.1 Length=0.87672 Units=m
New Line.LINE183_10 Bus1=183_10 Bus2=183_11 phases=3 Linecode=4c_.1 Length=0.43895 Units=m
New Line.LINE183_11 Bus1=183_11 Bus2=183_12 phases=3 Linecode=4c_.1 Length=0.15103 Units=m
New Line.LINE183_12 Bus1=183_12 Bus2=183_13 phases=3 Linecode=4c_.1 Length=0.098956 Units=m
New Line.LINE183_13 Bus1=183_13 Bus2=183_14 phases=3 Linecode=4c_.1 Length=0.16415 Units=m
New Line.LINE183_14 Bus1=183_14 Bus2=183_15 phases=3 Linecode=4c_.1 Length=0.096422 Units=m
New Line.LINE183_15 Bus1=183_15 Bus2=183_16 phases=3 Linecode=4c_.1 Length=0.10568 Units=m
New Line.LINE183_16 Bus1=183_16 Bus2=183_17 phases=3 Linecode=4c_.1 Length=0.072897 Units=m
New Line.LINE183_17 Bus1=183_17 Bus2=183_18 phases=3 Linecode=4c_.1 Length=0.52819 Units=m
New Line.LINE183_18 Bus1=183_18 Bus2=183_19 phases=3 Linecode=4c_.1 Length=0.72587 Units=m
New Line.LINE183_19 Bus1=183_19 Bus2=183_20 phases=3 Linecode=4c_.1 Length=0.95468 Units=m
New Line.LINE183_20 Bus1=183_20 Bus2=183_21 phases=3 Linecode=4c_.1 Length=5.9169 Units=m
New Line.LINE183_21 Bus1=183_21 Bus2=183_22 phases=3 Linecode=4c_.1 Length=7.9116 Units=m
New Line.LINE183_22 Bus1=183_22 Bus2=183_23 phases=3 Linecode=4c_.1 Length=1.6974 Units=m
New Line.LINE183_23 Bus1=183_23 Bus2=183_24 phases=3 Linecode=4c_.1 Length=0.19173 Units=m
New Line.LINE183_24 Bus1=183_24 Bus2=183_25 phases=3 Linecode=4c_.1 Length=0.23416 Units=m
New Line.LINE183_25 Bus1=183_25 Bus2=183_26 phases=3 Linecode=4c_.1 Length=0.31951 Units=m
New Line.LINE183_26 Bus1=183_26 Bus2=183_27 phases=3 Linecode=4c_.1 Length=0.26648 Units=m
New Line.LINE183_27 Bus1=183_27 Bus2=183_28 phases=3 Linecode=4c_.1 Length=4.8067 Units=m
New Line.LINE183_28 Bus1=183_28 Bus2=183_29 phases=3 Linecode=4c_.1 Length=5.98 Units=m
New Line.LINE183_29 Bus1=183_29 Bus2=183_30 phases=3 Linecode=4c_.1 Length=6.7342 Units=m
New Line.LINE183_30 Bus1=183_30 Bus2=183_31 phases=3 Linecode=4c_.1 Length=6.268 Units=m
New Line.LINE183_31 Bus1=183_31 Bus2=183_32 phases=3 Linecode=4c_.1 Length=3.7429 Units=m
New Line.LINE183_32 Bus1=183_32 Bus2=183_33 phases=3 Linecode=4c_.1 Length=0.32747 Units=m
New Line.LINE183_33 Bus1=183_33 Bus2=183_34 phases=3 Linecode=4c_.1 Length=0.25841 Units=m
New Line.LINE183_34 Bus1=183_34 Bus2=183_35 phases=3 Linecode=4c_.1 Length=0.41 Units=m
New Line.LINE183_35 Bus1=183_35 Bus2=183_36 phases=3 Linecode=4c_.1 Length=0.30619 Units=m
New Line.LINE183_36 Bus1=183_36 Bus2=183_37 phases=3 Linecode=4c_.1 Length=0.28838 Units=m
New Line.LINE183_37 Bus1=183_37 Bus2=183_38 phases=3 Linecode=4c_.1 Length=0.2008 Units=m
New Line.LINE183_38 Bus1=183_38 Bus2=183_39 phases=3 Linecode=4c_.1 Length=8.6368 Units=m
New Line.LINE183_39 Bus1=183_39 Bus2=183_40 phases=3 Linecode=4c_.1 Length=7.3622 Units=m
New Line.LINE183_40 Bus1=183_40 Bus2=183_41 phases=3 Linecode=4c_.1 Length=3.3556 Units=m
New Line.LINE183_41 Bus1=183_41 Bus2=183_42 phases=3 Linecode=4c_.1 Length=0.37848 Units=m
New Line.LINE183_42 Bus1=183_42 Bus2=183_43 phases=3 Linecode=4c_.1 Length=0.30567 Units=m
New Line.LINE183_43 Bus1=183_43 Bus2=183_44 phases=3 Linecode=4c_.1 Length=0.25646 Units=m
New Line.LINE183_44 Bus1=183_44 Bus2=183_45 phases=3 Linecode=4c_.1 Length=0.25316 Units=m
New Line.LINE183_45 Bus1=183_45 Bus2=183_46 phases=3 Linecode=4c_.1 Length=0.41958 Units=m
New Line.LINE183_46 Bus1=183_46 Bus2=183_47 phases=3 Linecode=4c_.1 Length=0.37477 Units=m
New Line.LINE183_47 Bus1=183_47 Bus2=183_48 phases=3 Linecode=4c_.1 Length=4.1714 Units=m
New Line.LINE183_48 Bus1=183_48 Bus2=183_49 phases=3 Linecode=4c_.1 Length=3.436 Units=m
New Line.LINE183_49 Bus1=183_49 Bus2=183_50 phases=3 Linecode=4c_.1 Length=0.70797 Units=m
New Line.LINE183_50 Bus1=183_50 Bus2=183_51 phases=3 Linecode=4c_.1 Length=0.98952 Units=m
New Line.LINE183_51 Bus1=183_51 Bus2=183_52 phases=3 Linecode=4c_.1 Length=0.79504 Units=m
New Line.LINE183_52 Bus1=183_52 Bus2=183_53 phases=3 Linecode=4c_.1 Length=3.4082 Units=m
New Line.LINE183_53 Bus1=183_53 Bus2=183_54 phases=3 Linecode=4c_.1 Length=2.269 Units=m
New Line.LINE183_54 Bus1=183_54 Bus2=183_55 phases=3 Linecode=4c_.1 Length=1.1067 Units=m
New Line.LINE183_55 Bus1=183_55 Bus2=183_56 phases=3 Linecode=4c_.1 Length=1.2724 Units=m
New Line.LINE183_56 Bus1=183_56 Bus2=183_57 phases=3 Linecode=4c_.1 Length=2.2679 Units=m
New Line.LINE183_57 Bus1=183_57 Bus2=183_58 phases=3 Linecode=4c_.1 Length=1.6292 Units=m
New Line.LINE183_58 Bus1=183_58 Bus2=183_59 phases=3 Linecode=4c_.1 Length=1.8438 Units=m
New Line.LINE183_59 Bus1=183_59 Bus2=183_60 phases=3 Linecode=4c_.1 Length=1.0907 Units=m
New Line.LINE183_60 Bus1=183_60 Bus2=183_61 phases=3 Linecode=4c_.1 Length=0.40761 Units=m
New Line.LINE183_61 Bus1=183_61 Bus2=183_62 phases=3 Linecode=4c_.1 Length=0.2934 Units=m
New Line.LINE183_62 Bus1=183_62 Bus2=183_63 phases=3 Linecode=4c_.1 Length=1.6147 Units=m
New Line.LINE183_63 Bus1=183_63 Bus2=183_64 phases=3 Linecode=4c_.1 Length=0.77185 Units=m
New Line.LINE183_64 Bus1=183_64 Bus2=183_65 phases=3 Linecode=4c_.1 Length=0.68446 Units=m
New Line.LINE183_65 Bus1=183_65 Bus2=183_66 phases=3 Linecode=4c_.1 Length=0.61378 Units=m
New Line.LINE183_66 Bus1=183_66 Bus2=183_67 phases=3 Linecode=4c_.1 Length=0.63675 Units=m
New Line.LINE183_67 Bus1=183_67 Bus2=183_68 phases=3 Linecode=4c_.1 Length=0.6487 Units=m
New Line.LINE183_68 Bus1=183_68 Bus2=183_69 phases=3 Linecode=4c_.1 Length=0.20689 Units=m
New Line.LINE183_69 Bus1=183_69 Bus2=183_70 phases=3 Linecode=4c_.1 Length=0.036055 Units=m
New Line.LINE183_70 Bus1=183_70 Bus2=183_71 phases=3 Linecode=4c_.1 Length=0.27242 Units=m
New Line.LINE183_71 Bus1=183_71 Bus2=183_72 phases=3 Linecode=4c_.1 Length=0.27035 Units=m
New Line.LINE183_72 Bus1=183_72 Bus2=183_73 phases=3 Linecode=4c_.1 Length=0.22373 Units=m
New Line.LINE183_73 Bus1=183_73 Bus2=183_74 phases=3 Linecode=4c_.1 Length=0.24707 Units=m
New Line.LINE183_74 Bus1=183_74 Bus2=183_75 phases=3 Linecode=4c_.1 Length=0.15677 Units=m
New Line.LINE183_75 Bus1=183_75 Bus2=183_76 phases=3 Linecode=4c_.1 Length=0.23121 Units=m
New Line.LINE183_76 Bus1=183_76 Bus2=183_77 phases=3 Linecode=4c_.1 Length=0.49555 Units=m
New Line.LINE183_77 Bus1=183_77 Bus2=183_78 phases=3 Linecode=4c_.1 Length=4.6248 Units=m
New Line.LINE183_78 Bus1=183_78 Bus2=183_79 phases=3 Linecode=4c_.1 Length=0.12554 Units=m
New Line.LINE183_79 Bus1=183_79 Bus2=183_80 phases=3 Linecode=4c_.1 Length=0.57291 Units=m
New Line.LINE183_80 Bus1=183_80 Bus2=183_81 phases=3 Linecode=4c_.1 Length=0.23599 Units=m
New Line.LINE183_81 Bus1=183_81 Bus2=183_82 phases=3 Linecode=4c_.1 Length=0.27242 Units=m
New Line.LINE183_82 Bus1=183_82 Bus2=183_83 phases=3 Linecode=4c_.1 Length=0.24775 Units=m
New Line.LINE183_83 Bus1=183_83 Bus2=183_84 phases=3 Linecode=4c_.1 Length=0.29396 Units=m
New Line.LINE183_84 Bus1=183_84 Bus2=183_85 phases=3 Linecode=4c_.1 Length=0.25118 Units=m
New Line.LINE183_85 Bus1=183_85 Bus2=183_86 phases=3 Linecode=4c_.1 Length=1.9654 Units=m
New Line.LINE183_86 Bus1=183_86 Bus2=183_87 phases=3 Linecode=4c_.1 Length=0.53086 Units=m
New Line.LINE183_87 Bus1=183_86 Bus2=183_88 phases=3 Linecode=4c_.2 Length=1.2607 Units=m
New Line.LINE183_88 Bus1=183_87 Bus2=183_89 phases=3 Linecode=4c_.1 Length=0.85115 Units=m
New Line.LINE183_89 Bus1=183_88 Bus2=183_90 phases=3 Linecode=4c_.2 Length=0.74184 Units=m
New Line.LINE183_90 Bus1=183_89 Bus2=183_91 phases=3 Linecode=4c_.1 Length=0.90139 Units=m
New Line.LINE183_91 Bus1=183_90 Bus2=183_92 phases=3 Linecode=4c_.2 Length=1.2096 Units=m
New Line.LINE183_92 Bus1=183_91 Bus2=183_93 phases=3 Linecode=4c_.1 Length=0.84922 Units=m
New Line.LINE183_93 Bus1=183_92 Bus2=183_94 phases=3 Linecode=4c_.2 Length=1.1317 Units=m
New Line.LINE183_94 Bus1=183_93 Bus2=183_95 phases=3 Linecode=4c_.1 Length=0.7629 Units=m
New Line.LINE183_95 Bus1=183_94 Bus2=183_96 phases=3 Linecode=4c_.2 Length=1.1769 Units=m
New Line.LINE183_96 Bus1=183_95 Bus2=183_97 phases=3 Linecode=4c_.1 Length=0.56289 Units=m
New Line.LINE183_97 Bus1=183_96 Bus2=183_98 phases=3 Linecode=4c_.2 Length=1.1557 Units=m
New Line.LINE183_98 Bus1=183_97 Bus2=183_99 phases=3 Linecode=4c_.1 Length=0.46098 Units=m
New Line.LINE183_99 Bus1=183_98 Bus2=183_100 phases=3 Linecode=4c_.2 Length=1.4959 Units=m
New Line.LINE183_100 Bus1=183_99 Bus2=183_101 phases=3 Linecode=4c_.1 Length=0.43639 Units=m
New Line.LINE183_101 Bus1=183_100 Bus2=183_102 phases=3 Linecode=4c_.2 Length=1.4457 Units=m
New Line.LINE183_102 Bus1=183_101 Bus2=183_103 phases=3 Linecode=4c_.1 Length=1.614 Units=m
New Line.LINE183_103 Bus1=183_102 Bus2=183_104 phases=3 Linecode=4c_.2 Length=1.5099 Units=m
New Line.LINE183_104 Bus1=183_103 Bus2=183_105 phases=3 Linecode=4c_.1 Length=1.5631 Units=m
New Line.LINE183_105 Bus1=183_104 Bus2=183_106 phases=3 Linecode=4c_.2 Length=1.8047 Units=m
New Line.LINE183_106 Bus1=183_104 Bus2=183_107 phases=3 Linecode=25_SAC_PC Length=3.9591 Units=m
New Line.LINE183_107 Bus1=183_105 Bus2=183_108 phases=3 Linecode=4c_.1 Length=1.5929 Units=m
New Line.LINE183_108 Bus1=183_106 Bus2=183_109 phases=3 Linecode=4c_.2 Length=1.8378 Units=m
New Line.LINE183_109 Bus1=183_107 Bus2=183_110 phases=3 Linecode=25_SAC_PC Length=0.4815 Units=m
New Line.LINE183_110 Bus1=183_108 Bus2=183_111 phases=3 Linecode=4c_.1 Length=2.0764 Units=m
New Line.LINE183_111 Bus1=183_109 Bus2=183_112 phases=3 Linecode=4c_.2 Length=1.7827 Units=m
New Line.LINE183_112 Bus1=183_110 Bus2=183_113 phases=3 Linecode=25_SAC_PC Length=0.16519 Units=m
New Line.LINE183_113 Bus1=183_111 Bus2=183_114 phases=3 Linecode=4c_.1 Length=0.96082 Units=m
New Line.LINE183_114 Bus1=183_112 Bus2=183_115 phases=3 Linecode=4c_.2 Length=2.5639 Units=m
New Line.LINE183_115 Bus1=183_113 Bus2=183_116 phases=3 Linecode=25_SAC_PC Length=0.28164 Units=m
New Line.LINE183_116 Bus1=183_114 Bus2=183_117 phases=3 Linecode=4c_.1 Length=0.92202 Units=m
New Line.LINE183_117 Bus1=183_115 Bus2=183_118 phases=3 Linecode=4c_.2 Length=2.5823 Units=m
New Line.LINE183_118 Bus1=183_116 Bus2=183_119 phases=3 Linecode=25_SAC_PC Length=0.38893 Units=m
New Line.LINE183_119 Bus1=183_117 Bus2=183_120 phases=3 Linecode=4c_.1 Length=1.2465 Units=m
New Line.LINE183_120 Bus1=183_118 Bus2=183_121 phases=3 Linecode=4c_.2 Length=0.90336 Units=m
New Line.LINE183_121 Bus1=183_119 Bus2=183_122 phases=3 Linecode=25_SAC_PC Length=0.43983 Units=m
New Line.LINE183_122 Bus1=183_120 Bus2=183_123 phases=3 Linecode=4c_.1 Length=0.24947 Units=m
New Line.LINE183_123 Bus1=183_120 Bus2=183_124 phases=3 Linecode=2c_.0225 Length=1.8223 Units=m
New Line.LINE183_124 Bus1=183_121 Bus2=183_125 phases=3 Linecode=4c_.2 Length=2.9928 Units=m
New Line.LINE183_125 Bus1=183_122 Bus2=183_126 phases=3 Linecode=25_SAC_PC Length=0.40584 Units=m
New Line.LINE183_126 Bus1=183_123 Bus2=183_127 phases=3 Linecode=4c_.1 Length=0.64539 Units=m
New Line.LINE183_127 Bus1=183_123 Bus2=183_128 phases=3 Linecode=2c_.0225 Length=1.7957 Units=m
New Line.LINE183_128 Bus1=183_124 Bus2=183_129 phases=3 Linecode=2c_.0225 Length=0.90259 Units=m
New Line.LINE183_129 Bus1=183_125 Bus2=183_130 phases=3 Linecode=4c_.2 Length=3.637 Units=m
New Line.LINE183_130 Bus1=183_126 Bus2=183_131 phases=3 Linecode=25_SAC_PC Length=0.15199 Units=m
New Line.LINE183_131 Bus1=183_127 Bus2=183_132 phases=3 Linecode=4c_.1 Length=1.1917 Units=m
New Line.LINE183_132 Bus1=183_128 Bus2=183_133 phases=3 Linecode=2c_.0225 Length=0.88631 Units=m
New Line.LINE183_133 Bus1=183_129 Bus2=183_134 phases=3 Linecode=2c_.0225 Length=1.6022 Units=m
New Line.LINE183_134 Bus1=183_130 Bus2=183_135 phases=3 Linecode=4c_.2 Length=7.393 Units=m
New Line.LINE183_135 Bus1=183_131 Bus2=183_136 phases=3 Linecode=25_SAC_PC Length=0.52078 Units=m
New Line.LINE183_136 Bus1=183_133 Bus2=183_137 phases=3 Linecode=2c_.0225 Length=1.5824 Units=m
New Line.LINE183_137 Bus1=183_134 Bus2=183_138 phases=3 Linecode=2c_.0225 Length=1.4609 Units=m
New Line.LINE183_138 Bus1=183_135 Bus2=183_139 phases=3 Linecode=4c_.2 Length=1.5054 Units=m
New Line.LINE183_139 Bus1=183_136 Bus2=183_140 phases=3 Linecode=25_SAC_PC Length=0.28079 Units=m
New Line.LINE183_140 Bus1=183_137 Bus2=183_141 phases=3 Linecode=2c_.0225 Length=1.4226 Units=m
New Line.LINE183_141 Bus1=183_138 Bus2=183_142 phases=3 Linecode=2c_.0225 Length=1.154 Units=m
New Line.LINE183_142 Bus1=183_139 Bus2=183_143 phases=3 Linecode=4c_.2 Length=0.5461 Units=m
New Line.LINE183_143 Bus1=183_140 Bus2=183_144 phases=3 Linecode=25_SAC_PC Length=0.20035 Units=m
New Line.LINE183_144 Bus1=183_141 Bus2=183_145 phases=3 Linecode=2c_.0225 Length=1.1352 Units=m
New Line.LINE183_145 Bus1=183_142 Bus2=183_146 phases=3 Linecode=2c_.0225 Length=0.71025 Units=m
New Line.LINE183_146 Bus1=183_143 Bus2=183_147 phases=3 Linecode=4c_.2 Length=2.0621 Units=m
New Line.LINE183_147 Bus1=183_144 Bus2=183_148 phases=3 Linecode=25_SAC_PC Length=0.15199 Units=m
New Line.LINE183_148 Bus1=183_145 Bus2=183_149 phases=3 Linecode=2c_.0225 Length=0.73574 Units=m
New Line.LINE183_149 Bus1=183_146 Bus2=183_150 phases=3 Linecode=2c_.0225 Length=0.25089 Units=m
New Line.LINE183_150 Bus1=183_147 Bus2=183_151 phases=3 Linecode=4c_.2 Length=1.3601 Units=m
New Line.LINE183_151 Bus1=183_148 Bus2=183_152 phases=3 Linecode=25_SAC_PC Length=0.238 Units=m
New Line.LINE183_152 Bus1=183_149 Bus2=183_153 phases=3 Linecode=2c_.0225 Length=0.31608 Units=m
New Line.LINE183_153 Bus1=183_150 Bus2=183_154 phases=3 Linecode=2c_.0225 Length=0.49033 Units=m
New Line.LINE183_154 Bus1=183_151 Bus2=183_155 phases=3 Linecode=4c_.2 Length=0.61991 Units=m
New Line.LINE183_155 Bus1=183_152 Bus2=183_156 phases=3 Linecode=25_SAC_PC Length=0.328 Units=m
New Line.LINE183_156 Bus1=183_153 Bus2=183_157 phases=3 Linecode=2c_.0225 Length=0.51335 Units=m
New Line.LINE183_157 Bus1=183_154 Bus2=183_158 phases=3 Linecode=2c_.0225 Length=6.5104 Units=m
New Line.LINE183_158 Bus1=183_155 Bus2=183_159 phases=3 Linecode=4c_.2 Length=0.68203 Units=m
New Line.LINE183_159 Bus1=183_156 Bus2=183_160 phases=3 Linecode=25_SAC_PC Length=0.241 Units=m
New Line.LINE183_160 Bus1=183_157 Bus2=183_161 phases=3 Linecode=2c_.0225 Length=6.5139 Units=m
New Line.LINE183_161 Bus1=183_158 Bus2=183_162 phases=3 Linecode=2c_.0225 Length=0.25461 Units=m
New Line.LINE183_162 Bus1=183_159 Bus2=183_163 phases=3 Linecode=4c_.2 Length=0.53393 Units=m
New Line.LINE183_163 Bus1=183_160 Bus2=183_164 phases=3 Linecode=25_SAC_PC Length=0.40525 Units=m
New Line.LINE183_164 Bus1=183_161 Bus2=183_165 phases=3 Linecode=2c_.0225 Length=0.21495 Units=m
New Line.LINE183_165 Bus1=183_162 Bus2=183_166 phases=3 Linecode=2c_.0225 Length=0.1163 Units=m
New Line.LINE183_166 Bus1=183_163 Bus2=183_167 phases=3 Linecode=4c_.2 Length=0.51654 Units=m
New Line.LINE183_167 Bus1=183_164 Bus2=183_168 phases=3 Linecode=25_SAC_PC Length=0.38893 Units=m
New Line.LINE183_168 Bus1=183_165 Bus2=183_169 phases=3 Linecode=2c_.0225 Length=0.18879 Units=m
New Line.LINE183_169 Bus1=183_166 Bus2=183_170 phases=3 Linecode=2c_.0225 Length=0.055326 Units=m
New Line.LINE183_170 Bus1=183_167 Bus2=183_171 phases=3 Linecode=4c_.2 Length=0.38193 Units=m
New Line.LINE183_171 Bus1=183_168 Bus2=183_172 phases=3 Linecode=25_SAC_PC Length=0.38138 Units=m
New Line.LINE183_172 Bus1=183_169 Bus2=183_173 phases=3 Linecode=2c_.0225 Length=0.21114 Units=m
New Line.LINE183_173 Bus1=183_170 Bus2=183_174 phases=3 Linecode=2c_.0225 Length=0.061294 Units=m
New Line.LINE183_174 Bus1=183_171 Bus2=183_175 phases=3 Linecode=4c_.2 Length=4.4163 Units=m
New Line.LINE183_175 Bus1=183_172 Bus2=183_176 phases=3 Linecode=25_SAC_PC Length=0.34926 Units=m
New Line.LINE183_176 Bus1=183_173 Bus2=183_177 phases=3 Linecode=2c_.0225 Length=0.239 Units=m
New Line.LINE183_177 Bus1=183_174 Bus2=183_178 phases=3 Linecode=2c_.0225 Length=0.056921 Units=m
New Line.LINE183_178 Bus1=183_175 Bus2=183_179 phases=3 Linecode=4c_.2 Length=5.4506 Units=m
New Line.LINE183_179 Bus1=183_176 Bus2=183_180 phases=3 Linecode=25_SAC_PC Length=0.77003 Units=m
New Line.LINE183_180 Bus1=183_177 Bus2=183_181 phases=3 Linecode=2c_.0225 Length=0.098731 Units=m
New Line.LINE183_181 Bus1=183_178 Bus2=183_182 phases=3 Linecode=2c_.0225 Length=0.069203 Units=m
New Line.LINE183_182 Bus1=183_179 Bus2=183_183 phases=3 Linecode=4c_.2 Length=1.1178 Units=m
New Line.LINE183_183 Bus1=183_180 Bus2=183_184 phases=3 Linecode=25_SAC_PC Length=1.2819 Units=m
New Line.LINE183_184 Bus1=183_181 Bus2=183_185 phases=3 Linecode=2c_.0225 Length=0.068732 Units=m
New Line.LINE183_185 Bus1=183_182 Bus2=183_186 phases=3 Linecode=2c_.0225 Length=0.098351 Units=m
New Line.LINE183_186 Bus1=183_183 Bus2=183_187 phases=3 Linecode=4c_.2 Length=1.2553 Units=m
New Line.LINE183_187 Bus1=183_184 Bus2=183_188 phases=3 Linecode=25_SAC_PC Length=0.98049 Units=m
New Line.LINE183_188 Bus1=183_185 Bus2=183_189 phases=3 Linecode=2c_.0225 Length=0.05608 Units=m
New Line.LINE183_189 Bus1=183_186 Bus2=183_190 phases=3 Linecode=2c_.0225 Length=0.27015 Units=m
New Line.LINE183_190 Bus1=183_187 Bus2=183_191 phases=3 Linecode=4c_.2 Length=0.30961 Units=m
New Line.LINE183_191 Bus1=183_188 Bus2=183_192 phases=3 Linecode=25_SAC_PC Length=1.0353 Units=m
New Line.LINE183_192 Bus1=183_189 Bus2=183_193 phases=3 Linecode=2c_.0225 Length=0.041232 Units=m
New Line.LINE183_193 Bus1=183_190 Bus2=183_194 phases=3 Linecode=2c_.0225 Length=0.15845 Units=m
New Line.LINE183_194 Bus1=183_191 Bus2=183_195 phases=3 Linecode=4c_.2 Length=0.15665 Units=m
New Line.LINE183_195 Bus1=183_192 Bus2=183_196 phases=3 Linecode=25_SAC_PC Length=1.1889 Units=m
New Line.LINE183_196 Bus1=183_193 Bus2=183_197 phases=3 Linecode=2c_.0225 Length=0.074249 Units=m
New Line.LINE183_197 Bus1=183_194 Bus2=183_198 phases=3 Linecode=2c_.0225 Length=0.76111 Units=m
New Line.LINE183_198 Bus1=183_195 Bus2=183_199 phases=3 Linecode=4c_.2 Length=0.41814 Units=m
New Line.LINE183_199 Bus1=183_196 Bus2=183_200 phases=3 Linecode=25_SAC_PC Length=0.6803 Units=m
New Line.LINE183_200 Bus1=183_197 Bus2=183_201 phases=3 Linecode=2c_.0225 Length=1.6187 Units=m
New Line.LINE183_201 Bus1=183_198 Bus2=183_202 phases=3 Linecode=2c_.0225 Length=1.1388 Units=m
New Line.LINE183_202 Bus1=183_199 Bus2=183_203 phases=3 Linecode=4c_.2 Length=1.4465 Units=m
New Line.LINE183_203 Bus1=183_200 Bus2=183_204 phases=3 Linecode=25_SAC_PC Length=0.57889 Units=m
New Line.LINE183_204 Bus1=183_201 Bus2=183_205 phases=3 Linecode=2c_.0225 Length=1.854 Units=m
New Line.LINE183_205 Bus1=183_202 Bus2=183_206 phases=3 Linecode=2c_.0225 Length=1.172 Units=m
New Line.LINE183_206 Bus1=183_203 Bus2=183_207 phases=3 Linecode=4c_.2 Length=0.10735 Units=m
New Line.LINE183_207 Bus1=183_204 Bus2=183_208 phases=3 Linecode=25_SAC_PC Length=0.44071 Units=m
New Line.LINE183_208 Bus1=183_205 Bus2=183_209 phases=3 Linecode=2c_.0225 Length=1.4559 Units=m
New Line.LINE183_209 Bus1=183_206 Bus2=183_210 phases=3 Linecode=2c_.0225 Length=2.1334 Units=m
New Line.LINE183_210 Bus1=183_207 Bus2=183_211 phases=3 Linecode=4c_.2 Length=0.084387 Units=m
New Line.LINE183_211 Bus1=183_208 Bus2=183_212 phases=3 Linecode=25_SAC_PC Length=0.16831 Units=m
New Line.LINE183_212 Bus1=183_209 Bus2=183_213 phases=3 Linecode=2c_.0225 Length=1.4608 Units=m
New Line.LINE183_213 Bus1=183_210 Bus2=183_214 phases=3 Linecode=2c_.0225 Length=1.1402 Units=m
New Line.LINE183_214 Bus1=183_211 Bus2=183_215 phases=3 Linecode=4c_.2 Length=0.13179 Units=m
New Line.LINE183_215 Bus1=183_212 Bus2=183_216 phases=3 Linecode=25_SAC_PC Length=0.371 Units=m
New Line.LINE183_216 Bus1=183_213 Bus2=183_217 phases=3 Linecode=2c_.0225 Length=0.18752 Units=m
New Line.LINE183_217 Bus1=183_214 Bus2=183_218 phases=3 Linecode=2c_.0225 Length=1.0908 Units=m
New Line.LINE183_218 Bus1=183_215 Bus2=183_219 phases=3 Linecode=4c_.2 Length=0.37265 Units=m
New Line.LINE183_219 Bus1=183_216 Bus2=183_220 phases=3 Linecode=25_SAC_PC Length=1.0748 Units=m
New Line.LINE183_220 Bus1=183_217 Bus2=183_221 phases=3 Linecode=2c_.0225 Length=0.12889 Units=m
New Line.LINE183_221 Bus1=183_218 Bus2=183_222 phases=3 Linecode=2c_.0225 Length=0.092348 Units=m
New Line.LINE183_222 Bus1=183_219 Bus2=183_223 phases=3 Linecode=4c_.2 Length=0.90253 Units=m
New Line.LINE183_223 Bus1=183_219 Bus2=183_224 phases=3 Linecode=4c_.1 Length=3.2086 Units=m
New Line.LINE183_224 Bus1=183_220 Bus2=183_225 phases=3 Linecode=25_SAC_PC Length=0.93584 Units=m
New Line.LINE183_225 Bus1=183_221 Bus2=183_226 phases=3 Linecode=2c_.0225 Length=0.09265 Units=m
New Line.LINE183_226 Bus1=183_222 Bus2=183_227 phases=3 Linecode=2c_.0225 Length=0.17056 Units=m
New Line.LINE183_227 Bus1=183_223 Bus2=183_228 phases=3 Linecode=4c_.2 Length=6.5785 Units=m
New Line.LINE183_228 Bus1=183_224 Bus2=183_229 phases=3 Linecode=4c_.1 Length=2.9914 Units=m
New Line.LINE183_229 Bus1=183_226 Bus2=183_230 phases=3 Linecode=2c_.0225 Length=0.118 Units=m
New Line.LINE183_230 Bus1=183_227 Bus2=183_231 phases=3 Linecode=2c_.0225 Length=0.17151 Units=m
New Line.LINE183_231 Bus1=183_228 Bus2=183_232 phases=3 Linecode=4c_.2 Length=0.14241 Units=m
New Line.LINE183_232 Bus1=183_229 Bus2=183_233 phases=3 Linecode=4c_.1 Length=1.7873 Units=m
New Line.LINE183_233 Bus1=183_230 Bus2=183_234 phases=3 Linecode=2c_.0225 Length=0.084001 Units=m
New Line.LINE183_234 Bus1=183_231 Bus2=183_235 phases=3 Linecode=2c_.0225 Length=0.11636 Units=m
New Line.LINE183_235 Bus1=183_232 Bus2=183_236 phases=3 Linecode=4c_.2 Length=0.10599 Units=m
New Line.LINE183_236 Bus1=183_233 Bus2=183_237 phases=3 Linecode=4c_.1 Length=2.0229 Units=m
New Line.LINE183_237 Bus1=183_234 Bus2=183_238 phases=3 Linecode=2c_.0225 Length=0.085614 Units=m
New Line.LINE183_238 Bus1=183_235 Bus2=183_239 phases=3 Linecode=2c_.0225 Length=0.10423 Units=m
New Line.LINE183_239 Bus1=183_236 Bus2=183_240 phases=3 Linecode=4c_.2 Length=0.25498 Units=m
New Line.LINE183_240 Bus1=183_237 Bus2=183_241 phases=3 Linecode=4c_.1 Length=1.2179 Units=m
New Line.LINE183_241 Bus1=183_238 Bus2=183_242 phases=3 Linecode=2c_.0225 Length=0.10062 Units=m
New Line.LINE183_242 Bus1=183_239 Bus2=183_243 phases=3 Linecode=2c_.0225 Length=0.11172 Units=m
New Line.LINE183_243 Bus1=183_240 Bus2=183_244 phases=3 Linecode=4c_.2 Length=0.38617 Units=m
New Line.LINE183_244 Bus1=183_241 Bus2=183_245 phases=3 Linecode=4c_.1 Length=2.2916 Units=m
New Line.LINE183_245 Bus1=183_242 Bus2=183_246 phases=3 Linecode=2c_.0225 Length=0.39042 Units=m
New Line.LINE183_246 Bus1=183_243 Bus2=183_247 phases=3 Linecode=2c_.0225 Length=0.1212 Units=m
New Line.LINE183_247 Bus1=183_244 Bus2=183_248 phases=3 Linecode=4c_.2 Length=0.044597 Units=m
New Line.LINE183_248 Bus1=183_245 Bus2=183_249 phases=3 Linecode=4c_.1 Length=2.386 Units=m
New Line.LINE183_249 Bus1=183_246 Bus2=183_250 phases=3 Linecode=2c_.0225 Length=0.75047 Units=m
New Line.LINE183_250 Bus1=183_247 Bus2=183_251 phases=3 Linecode=2c_.0225 Length=0.16056 Units=m
New Line.LINE183_251 Bus1=183_248 Bus2=183_252 phases=3 Linecode=4c_.2 Length=0.12702 Units=m
New Line.LINE183_252 Bus1=183_249 Bus2=183_253 phases=3 Linecode=4c_.06_UA Length=0.59225 Units=m
New Line.LINE183_253 Bus1=183_250 Bus2=183_254 phases=3 Linecode=2c_.0225 Length=2.1065 Units=m
New Line.LINE183_254 Bus1=183_251 Bus2=183_255 phases=3 Linecode=2c_.0225 Length=0.33055 Units=m
New Line.LINE183_255 Bus1=183_252 Bus2=183_256 phases=3 Linecode=4c_.2 Length=0.096519 Units=m
New Line.LINE183_256 Bus1=183_253 Bus2=183_257 phases=3 Linecode=4c_.06_UA Length=0.19383 Units=m
New Line.LINE183_257 Bus1=183_255 Bus2=183_258 phases=3 Linecode=2c_.0225 Length=0.42137 Units=m
New Line.LINE183_258 Bus1=183_256 Bus2=183_259 phases=3 Linecode=4c_.2 Length=0.47164 Units=m
New Line.LINE183_259 Bus1=183_257 Bus2=183_260 phases=3 Linecode=4c_.06_UA Length=1.7396 Units=m
New Line.LINE183_260 Bus1=183_258 Bus2=183_261 phases=3 Linecode=2c_.0225 Length=1.3404 Units=m
New Line.LINE183_261 Bus1=183_259 Bus2=183_262 phases=3 Linecode=4c_.1 Length=0.40166 Units=m
New Line.LINE183_262 Bus1=183_259 Bus2=183_263 phases=3 Linecode=4c_.1 Length=0.7527 Units=m
New Line.LINE183_263 Bus1=183_260 Bus2=183_264 phases=3 Linecode=4c_.06_UA Length=0.33395 Units=m
New Line.LINE183_264 Bus1=183_262 Bus2=183_265 phases=3 Linecode=4c_.1 Length=0.80618 Units=m
New Line.LINE183_265 Bus1=183_263 Bus2=183_266 phases=3 Linecode=4c_.1 Length=0.99007 Units=m
New Line.LINE183_266 Bus1=183_264 Bus2=183_267 phases=3 Linecode=4c_.06_UA Length=0.23462 Units=m
New Line.LINE183_267 Bus1=183_264 Bus2=183_268 phases=3 Linecode=2c_.0225 Length=0.37209 Units=m
New Line.LINE183_268 Bus1=183_265 Bus2=183_269 phases=3 Linecode=4c_.1 Length=0.4343 Units=m
New Line.LINE183_269 Bus1=183_266 Bus2=183_270 phases=3 Linecode=4c_.1 Length=1.4019 Units=m
New Line.LINE183_270 Bus1=183_267 Bus2=183_271 phases=3 Linecode=4c_.06_UA Length=0.82053 Units=m
New Line.LINE183_271 Bus1=183_268 Bus2=183_272 phases=3 Linecode=2c_.0225 Length=0.69611 Units=m
New Line.LINE183_272 Bus1=183_269 Bus2=183_273 phases=3 Linecode=4c_.1 Length=0.54297 Units=m
New Line.LINE183_273 Bus1=183_270 Bus2=183_274 phases=3 Linecode=4c_.1 Length=1.4687 Units=m
New Line.LINE183_274 Bus1=183_271 Bus2=183_275 phases=3 Linecode=4c_.06_UA Length=9.3161 Units=m
New Line.LINE183_275 Bus1=183_272 Bus2=183_276 phases=3 Linecode=2c_.0225 Length=1.5505 Units=m
New Line.LINE183_276 Bus1=183_273 Bus2=183_277 phases=3 Linecode=4c_.1 Length=0.41643 Units=m
New Line.LINE183_277 Bus1=183_274 Bus2=183_278 phases=3 Linecode=4c_.1 Length=1.8067 Units=m
New Line.LINE183_278 Bus1=183_275 Bus2=183_279 phases=3 Linecode=4c_.06_UA Length=5.6154 Units=m
New Line.LINE183_279 Bus1=183_275 Bus2=183_280 phases=3 Linecode=4c_.06_UA Length=0.56316 Units=m
New Line.LINE183_280 Bus1=183_276 Bus2=183_281 phases=3 Linecode=2c_.0225 Length=0.7754 Units=m
New Line.LINE183_281 Bus1=183_277 Bus2=183_282 phases=3 Linecode=4c_.1 Length=0.4753 Units=m
New Line.LINE183_282 Bus1=183_278 Bus2=183_283 phases=3 Linecode=4c_.1 Length=1.3827 Units=m
New Line.LINE183_283 Bus1=183_279 Bus2=183_284 phases=3 Linecode=4c_.06_UA Length=6.5061 Units=m
New Line.LINE183_284 Bus1=183_280 Bus2=183_285 phases=3 Linecode=4c_.06_UA Length=0.19156 Units=m
New Line.LINE183_285 Bus1=183_281 Bus2=183_286 phases=3 Linecode=2c_.0225 Length=1.6098 Units=m
New Line.LINE183_286 Bus1=183_282 Bus2=183_287 phases=3 Linecode=4c_.1 Length=0.505 Units=m
New Line.LINE183_287 Bus1=183_283 Bus2=183_288 phases=3 Linecode=4c_.1 Length=3.2568 Units=m
New Line.LINE183_288 Bus1=183_284 Bus2=183_289 phases=3 Linecode=4c_.06_UA Length=8.4891 Units=m
New Line.LINE183_289 Bus1=183_285 Bus2=183_290 phases=3 Linecode=4c_.06_UA Length=0.221 Units=m
New Line.LINE183_290 Bus1=183_286 Bus2=183_291 phases=3 Linecode=2c_.0225 Length=3.6665 Units=m
New Line.LINE183_291 Bus1=183_287 Bus2=183_292 phases=3 Linecode=4c_.1 Length=0.78489 Units=m
New Line.LINE183_292 Bus1=183_288 Bus2=183_293 phases=3 Linecode=4c_.1 Length=1.5198 Units=m
New Line.LINE183_293 Bus1=183_289 Bus2=183_294 phases=3 Linecode=4c_.06_UA Length=0.81569 Units=m
New Line.LINE183_294 Bus1=183_290 Bus2=183_295 phases=3 Linecode=4c_.06_UA Length=0.15893 Units=m
New Line.LINE183_295 Bus1=183_291 Bus2=183_296 phases=3 Linecode=2c_.0225 Length=3.1432 Units=m
New Line.LINE183_296 Bus1=183_292 Bus2=183_297 phases=3 Linecode=4c_.1 Length=2.1799 Units=m
New Line.LINE183_297 Bus1=183_293 Bus2=183_298 phases=3 Linecode=4c_.1 Length=1.4464 Units=m
New Line.LINE183_298 Bus1=183_294 Bus2=183_299 phases=3 Linecode=4c_.06_UA Length=6.1001 Units=m
New Line.LINE183_299 Bus1=183_294 Bus2=183_300 phases=3 Linecode=25_SAC_PC Length=6.5241 Units=m
New Line.LINE183_300 Bus1=183_295 Bus2=183_301 phases=3 Linecode=4c_.06_UA Length=0.21695 Units=m
New Line.LINE183_301 Bus1=183_296 Bus2=183_302 phases=3 Linecode=2c_.0225 Length=0.6593 Units=m
New Line.LINE183_302 Bus1=183_296 Bus2=183_303 phases=3 Linecode=3c_.06_UA Length=2.1384 Units=m
New Line.LINE183_303 Bus1=183_297 Bus2=183_304 phases=3 Linecode=4c_.1 Length=2.431 Units=m
New Line.LINE183_304 Bus1=183_298 Bus2=183_305 phases=3 Linecode=4c_.1 Length=1.4921 Units=m
New Line.LINE183_305 Bus1=183_299 Bus2=183_306 phases=3 Linecode=4c_.06_UA Length=5.8683 Units=m
New Line.LINE183_306 Bus1=183_300 Bus2=183_307 phases=3 Linecode=25_SAC_PC Length=3.5852 Units=m
New Line.LINE183_307 Bus1=183_301 Bus2=183_308 phases=3 Linecode=4c_.06_UA Length=0.23658 Units=m
New Line.LINE183_308 Bus1=183_302 Bus2=183_309 phases=3 Linecode=2c_.0225 Length=0.62243 Units=m
New Line.LINE183_309 Bus1=183_303 Bus2=183_310 phases=3 Linecode=3c_.06_UA Length=4.5301 Units=m
New Line.LINE183_310 Bus1=183_304 Bus2=183_311 phases=3 Linecode=4c_.1 Length=1.4745 Units=m
New Line.LINE183_311 Bus1=183_304 Bus2=183_312 phases=3 Linecode=4c_.1 Length=1.3517 Units=m
New Line.LINE183_312 Bus1=183_305 Bus2=183_313 phases=3 Linecode=4c_.1 Length=1.3676 Units=m
New Line.LINE183_313 Bus1=183_306 Bus2=183_314 phases=3 Linecode=4c_.06_UA Length=5.9122 Units=m
New Line.LINE183_314 Bus1=183_307 Bus2=183_315 phases=3 Linecode=25_SAC_PC Length=1.3418 Units=m
New Line.LINE183_315 Bus1=183_308 Bus2=183_316 phases=3 Linecode=4c_.06_UA Length=0.14468 Units=m
New Line.LINE183_316 Bus1=183_309 Bus2=183_317 phases=3 Linecode=2c_.0225 Length=0.6704 Units=m
New Line.LINE183_317 Bus1=183_310 Bus2=183_318 phases=3 Linecode=3c_.06_UA Length=2.0902 Units=m
New Line.LINE183_318 Bus1=183_311 Bus2=183_319 phases=3 Linecode=4c_.1 Length=0.32825 Units=m
New Line.LINE183_319 Bus1=183_312 Bus2=183_320 phases=3 Linecode=4c_.1 Length=0.95284 Units=m