New Line.LINE1118 Bus1=11 Bus2=1119 phases=3 Linecode=.04_PSC Length=3.901 Units=m
New Line.LINE1124 Bus1=1115 Bus2=1125 phases=3 Linecode=3c_185_SAC_ASN Length=1.3774 Units=m
New Line.LINE1133 Bus1=1125 Bus2=1134 phases=3 Linecode=3c_185_SAC_ASN Length=0.13324 Units=m
New Line.LINE1142 Bus1=1134 Bus2=1143 phases=3 Linecode=3c_185_SAC_ASN Length=0.10841 Units=m
New Line.LINE1151 Bus1=1143 Bus2=1152 phases=3 Linecode=3c_185_SAC_ASN Length=0.13265 Units=m
New Line.LINE1159 Bus1=1151 Bus2=1160 phases=3 Linecode=4c_300_SAC Length=8.6492 Units=m
New Line.LINE1161 Bus1=1152 Bus2=1162 phases=3 Linecode=3c_185_SAC_ASN Length=0.10885 Units=m
New Line.LINE1169 Bus1=1160 Bus2=1170 phases=3 Linecode=4c_300_SAC Length=18.6566 Units=m
New Line.LINE1172 Bus1=1162 Bus2=1173 phases=3 Linecode=3c_185_SAC_ASN Length=0.11474 Units=m
New Line.LINE1180 Bus1=1170 Bus2=1181 phases=3 Linecode=4c_185_SAC Length=1.9276 Units=m
New Line.LINE1183 Bus1=1173 Bus2=1184 phases=3 Linecode=3c_185_SAC_ASN Length=7.0039 Units=m
New Line.LINE1192 Bus1=1181 Bus2=1193 phases=3 Linecode=4c_185_SAC Length=1.5189 Units=m
New Line.LINE1195 Bus1=1184 Bus2=1196 phases=3 Linecode=3c_185_SAC_ASN Length=0.14202 Units=m
New Line.LINE1202 Bus1=1191 Bus2=1203 phases=3 Linecode=.04_PSC Length=3.5708 Units=m
New Line.LINE1209 Bus1=1196 Bus2=1210 phases=3 Linecode=3c_185_SAC_ASN Length=0.16488 Units=m
New Line.LINE1213 Bus1=1199 Bus2=1214 phases=3 Linecode=.04_PSC Length=4.6735 Units=m
New Line.LINE1223 Bus1=1210 Bus2=1224 phases=3 Linecode=3c_185_SAC_ASN Length=0.18065 Units=m
New Line.LINE1229 Bus1=1216 Bus2=1230 phases=3 Linecode=.04_PSC Length=4.1692 Units=m
New Line.LINE1239 Bus1=1224 Bus2=1240 phases=3 Linecode=3c_185_SAC_ASN Length=0.19854 Units=m
New Line.LINE1254 Bus1=1240 Bus2=1255 phases=3 Linecode=3c_185_SAC_ASN Length=0.31745 Units=m
New Line.LINE1269 Bus1=1254 Bus2=1270 phases=3 Linecode=.04_PSC Length=3.7482 Units=m
New Line.LINE1270 Bus1=1255 Bus2=1271 phases=3 Linecode=3c_185_SAC_ASN Length=0.37249 Units=m
New Line.LINE1284 Bus1=1271 Bus2=1285 phases=3 Linecode=3c_185_SAC_ASN Length=0.3414 Units=m
New Line.LINE1298 Bus1=1285 Bus2=1299 phases=3 Linecode=3c_185_SAC_ASN Length=0.42052 Units=m
New Line.LINE1312 Bus1=1299 Bus2=1313 phases=3 Linecode=3c_185_SAC_ASN Length=0.31831 Units=m
New Line.LINE1326 Bus1=1313 Bus2=1327 phases=3 Linecode=3c_185_SAC_ASN Length=0.65266 Units=m
New Line.LINE1340 Bus1=1327 Bus2=1341 phases=3 Linecode=4c_120_SAC Length=0.7975 Units=m
New Line.LINE1354 Bus1=1341 Bus2=1355 phases=3 Linecode=4c_120_SAC Length=0.78353 Units=m
New Line.LINE1368 Bus1=1355 Bus2=1369 phases=3 Linecode=4c_120_SAC Length=0.69826 Units=m
New Line.LINE1377 Bus1=1364 Bus2=1378 phases=3 Linecode=.0225_PSC Length=5.5781 Units=m
New Line.LINE1382 Bus1=1369 Bus2=1383 phases=3 Linecode=4c_120_SAC Length=0.84116 Units=m
New Line.LINE1395 Bus1=1383 Bus2=1396 phases=3 Linecode=4c_120_SAC Length=0.92943 Units=m
New Line.LINE1409 Bus1=1396 Bus2=1410 phases=3 Linecode=4c_120_SAC Length=7.2668 Units=m
New Line.LINE1411 Bus1=1397 Bus2=1412 phases=3 Linecode=4c_120_SAC Length=11.8223 Units=m
New Line.LINE1424 Bus1=1410 Bus2=1425 phases=3 Linecode=4c_120_SAC Length=8.3175 Units=m
New Line.LINE1442 Bus1=1425 Bus2=1443 phases=3 Linecode=4c_120_SAC Length=10.6987 Units=m
New Line.LINE1467 Bus1=1447 Bus2=1468 phases=3 Linecode=.0225_PSC Length=8.8381 Units=m
New Line.LINE1490 Bus1=1468 Bus2=1491 phases=3 Linecode=.0225_PSC Length=4.1514 Units=m
New Line.LINE1517 Bus1=1493 Bus2=1518 phases=3 Linecode=4c_120_SAC Length=2.428 Units=m
New Line.LINE1525 Bus1=1501 Bus2=1526 phases=3 Linecode=.04_PSC Length=4.1328 Units=m
New Line.LINE1542 Bus1=1518 Bus2=1543 phases=3 Linecode=4c_120_SAC Length=9.3104 Units=m
New Line.LINE1560 Bus1=1535 Bus2=1561 phases=3 Linecode=4c_120_SAC Length=2.0746 Units=m
New Line.LINE1568 Bus1=1543 Bus2=1569 phases=3 Linecode=.0225_PSC Length=0.3281 Units=m
New Line.LINE1587 Bus1=1561 Bus2=1588 phases=3 Linecode=.04_PSC Length=0.33189 Units=m
New Line.LINE1590 Bus1=1562 Bus2=1591 phases=3 Linecode=.0225_PSC Length=4.5543 Units=m
New Line.LINE1597 Bus1=1569 Bus2=1598 phases=3 Linecode=.0225_PSC Length=0.068731 Units=m
New Line.LINE1616 Bus1=1588 Bus2=1617 phases=3 Linecode=.04_PSC Length=0.16194 Units=m
New Line.LINE1624 Bus1=1598 Bus2=1625 phases=3 Linecode=.0225_PSC Length=0.044599 Units=m
New Line.LINE1643 Bus1=1617 Bus2=1644 phases=3 Linecode=.04_PSC Length=0.17014 Units=m
New Line.LINE1651 Bus1=1625 Bus2=1652 phases=3 Linecode=.0225_PSC Length=0.038948 Units=m
New Line.LINE1669 Bus1=1644 Bus2=1670 phases=3 Linecode=.04_PSC Length=0.19028 Units=m
New Line.LINE1677 Bus1=1652 Bus2=1678 phases=3 Linecode=.0225_PSC Length=0.043186 Units=m
New Line.LINE1681 Bus1=1656 Bus2=1682 phases=3 Linecode=.0225_PSC Length=4.3968 Units=m
New Line.LINE1695 Bus1=1670 Bus2=1696 phases=3 Linecode=.04_PSC Length=0.15721 Units=m
New Line.LINE1703 Bus1=1678 Bus2=1704 phases=3 Linecode=.0225_PSC Length=0.063906 Units=m
New Line.LINE1720 Bus1=1696 Bus2=1721 phases=3 Linecode=.04_PSC Length=0.19641 Units=m
New Line.LINE1728 Bus1=1704 Bus2=1729 phases=3 Linecode=.0225_PSC Length=2.9037 Units=m
New Line.LINE1743 Bus1=1721 Bus2=1744 phases=3 Linecode=.04_PSC Length=0.2813 Units=m
New Line.LINE1751 Bus1=1729 Bus2=1752 phases=3 Linecode=.0225_PSC Length=4.0317 Units=m
New Line.LINE1766 Bus1=1744 Bus2=1767 phases=3 Linecode=.04_PSC Length=0.234 Units=m
New Line.LINE1774 Bus1=1752 Bus2=1775 phases=3 Linecode=.0225_PSC Length=0.49458 Units=m
New Line.LINE1789 Bus1=1767 Bus2=1790 phases=3 Linecode=.04_PSC Length=0.23536 Units=m
New Line.LINE1798 Bus1=1775 Bus2=1799 phases=3 Linecode=.04_PSC Length=4.8105 Units=m
New Line.LINE1814 Bus1=1790 Bus2=1815 phases=3 Linecode=.04_PSC Length=0.23277 Units=m
New Line.LINE1820 Bus1=1795 Bus2=1821 phases=3 Linecode=.0225_PSC Length=3.4829 Units=m
New Line.LINE1826 Bus1=1802 Bus2=1827 phases=3 Linecode=4c_185_SAC Length=12.7797 Units=m
New Line.LINE1840 Bus1=1815 Bus2=1841 phases=3 Linecode=.04_PSC Length=5.0441 Units=m
New Line.LINE1866 Bus1=1841 Bus2=1867 phases=3 Linecode=.04_PSC Length=0.91389 Units=m
New Line.LINE1891 Bus1=1867 Bus2=1892 phases=3 Linecode=.04_PSC Length=1.2245 Units=m
New Line.LINE1895 Bus1=1870 Bus2=1896 phases=3 Linecode=.04_PSC Length=5.4457 Units=m
New Line.LINE1916 Bus1=1892 Bus2=1917 phases=3 Linecode=.04_PSC Length=0.59236 Units=m
New Line.LINE1939 Bus1=1917 Bus2=1940 phases=3 Linecode=.04_PSC Length=0.39518 Units=m
New Line.LINE1953 Bus1=1931 Bus2=1954 phases=3 Linecode=.0225_PSC Length=2.989 Units=m
New Line.LINE1959 Bus1=1936 Bus2=1960 phases=3 Linecode=.04_PSC Length=5.5925 Units=m
New Line.LINE1963 Bus1=1940 Bus2=1964 phases=3 Linecode=.04_PSC Length=0.62954 Units=m
New Line.LINE1965 Bus1=1941 Bus2=1966 phases=3 Linecode=.04_PSC Length=4.6884 Units=m
New Line.LINE1981 Bus1=1957 Bus2=1982 phases=3 Linecode=.04_PSC Length=4.2816 Units=m
New Line.LINE1987 Bus1=1964 Bus2=1988 phases=3 Linecode=.04_PSC Length=0.65311 Units=m
New Line.LINE11009 Bus1=1988 Bus2=11010 phases=3 Linecode=.04_PSC Length=0.48764 Units=m
New Line.LINE11030 Bus1=11010 Bus2=11031 phases=3 Linecode=.04_PSC Length=0.41812 Units=m
New Line.LINE11051 Bus1=11031 Bus2=11052 phases=3 Linecode=.04_PSC Length=0.55225 Units=m
New Line.LINE11072 Bus1=11052 Bus2=11073 phases=3 Linecode=.04_PSC Length=0.28123 Units=m
New Line.LINE11088 Bus1=11068 Bus2=11089 phases=3 Linecode=.04_PSC Length=3.6783 Units=m
New Line.LINE11093 Bus1=11073 Bus2=11094 phases=3 Linecode=.04_PSC Length=0.23338 Units=m
New Line.LINE11098 Bus1=11077 Bus2=11099 phases=3 Linecode=.04_PSC Length=4.0336 Units=m
New Line.LINE11104 Bus1=11083 Bus2=11105 phases=3 Linecode=.04_PSC Length=4.4765 Units=m
New Line.LINE11114 Bus1=11094 Bus2=11115 phases=3 Linecode=.04_PSC Length=0.3542 Units=m
New Line.LINE11132 Bus1=11114 Bus2=11133 phases=3 Linecode=.04_PSC Length=3.7198 Units=m
New Line.LINE11133 Bus1=11115 Bus2=11134 phases=3 Linecode=.04_PSC Length=0.36592 Units=m
New Line.LINE11151 Bus1=11134 Bus2=11152 phases=3 Linecode=.04_PSC Length=0.2868 Units=m
New Line.LINE11169 Bus1=11152 Bus2=11170 phases=3 Linecode=.04_PSC Length=0.36436 Units=m
New Line.LINE11173 Bus1=11156 Bus2=11174 phases=3 Linecode=.04_PSC Length=5.4228 Units=m
New Line.LINE11186 Bus1=11168 Bus2=11187 phases=3 Linecode=.04_PSC Length=3.7668 Units=m
New Line.LINE11188 Bus1=11170 Bus2=11189 phases=3 Linecode=.04_PSC Length=0.30593 Units=m
New Line.LINE11204 Bus1=11189 Bus2=11205 phases=3 Linecode=.04_PSC Length=0.4892 Units=m
New Line.LINE11220 Bus1=11205 Bus2=11221 phases=3 Linecode=.04_PSC Length=0.45266 Units=m
New Line.LINE11236 Bus1=11221 Bus2=11237 phases=3 Linecode=.04_PSC Length=0.13018 Units=m
New Line.LINE11250 Bus1=11237 Bus2=11251 phases=3 Linecode=.04_PSC Length=0.19126 Units=m
New Line.LINE11256 Bus1=11242 Bus2=11257 phases=3 Linecode=.04_PSC Length=4.7418 Units=m
New Line.LINE11265 Bus1=11251 Bus2=11266 phases=3 Linecode=.04_PSC Length=0.16227 Units=m
New Line.LINE11279 Bus1=11266 Bus2=11280 phases=3 Linecode=.04_PSC Length=0.13437 Units=m
New Line.LINE11292 Bus1=11280 Bus2=11293 phases=3 Linecode=.04_PSC Length=0.77624 Units=m
New Line.LINE11306 Bus1=11293 Bus2=11307 phases=3 Linecode=.04_PSC Length=4.7823 Units=m
New Line.LINE11310 Bus1=11296 Bus2=11311 phases=3 Linecode=.04_PSC Length=3.8439 Units=m
New Line.LINE11313 Bus1=11298 Bus2=11314 phases=3 Linecode=.04_PSC Length=4.5545 Units=m
New Line.LINE11328 Bus1=11318 Bus2=11329 phases=3 Linecode=.04_PSC Length=5.2267 Units=m
New Line.LINE1Cmpd_0 Bus1=1827 Bus2=11296 phases=3 Linecode=.04_PSC Length=18.324491 Units=m
New Line.LINE1Cmpd_1 Bus1=11 Bus2=175 phases=3 Linecode=4c_300_SAC Length=150.015054 Units=m
New Line.LINE1Cmpd_2 Bus1=1425 Bus2=1957 phases=3 Linecode=.04_PSC Length=10.699932 Units=m
New Line.LINE1Cmpd_3 Bus1=1802 Bus2=11083 phases=3 Linecode=.0225_PSC Length=9.751221 Units=m
New Line.LINE1Cmpd_4 Bus1=1219 Bus2=1802 phases=3 Linecode=4c_185_SAC Length=29.07115 Units=m
New Line.LINE1Cmpd_5 Bus1=11077 Bus2=11308 phases=3 Linecode=.04_PSC Length=12.264343 Units=m
New Line.LINE1Cmpd_6 Bus1=11068 Bus2=11326 phases=3 Linecode=.04_PSC Length=15.09543 Units=m
New Line.LINE1Cmpd_7 Bus1=11293 Bus2=11407 phases=3 Linecode=.04_PSC Length=14.28132 Units=m
New Line.LINE1Cmpd_8 Bus1=1493 Bus2=11156 phases=3 Linecode=.04_PSC Length=26.583901 Units=m
New Line.LINE1Cmpd_9 Bus1=1193 Bus2=1501 phases=3 Linecode=.04_PSC Length=10.435966 Units=m
New Line.LINE1Cmpd_10 Bus1=1443 Bus2=11318 phases=3 Linecode=.04_PSC Length=23.844045 Units=m
New Line.LINE1Cmpd_11 Bus1=1254 Bus2=1457 phases=3 Linecode=.0225_PSC Length=13.72072 Units=m
New Line.LINE1Cmpd_12 Bus1=175 Bus2=1397 phases=3 Linecode=4c_120_SAC Length=28.497156 Units=m
New Line.LINE1Cmpd_13 Bus1=1425 Bus2=11068 phases=3 Linecode=.04_PSC Length=11.300024 Units=m
New Line.LINE1Cmpd_14 Bus1=1656 Bus2=11000 phases=3 Linecode=.0225_PSC Length=12.520605 Units=m
New Line.LINE1Cmpd_15 Bus1=1870 Bus2=11154 phases=3 Linecode=.04_PSC Length=12.494008 Units=m
New Line.LINE1Cmpd_16 Bus1=193 Bus2=1191 phases=3 Linecode=.0225_PSC Length=11.911701 Units=m
New Line.LINE1Cmpd_17 Bus1=1412 Bus2=1941 phases=3 Linecode=.04_PSC Length=22.566065 Units=m
New Line.LINE1Cmpd_18 Bus1=1199 Bus2=1450 phases=3 Linecode=.0225_PSC Length=12.061278 Units=m
New Line.LINE1Cmpd_19 Bus1=11156 Bus2=11346 phases=3 Linecode=.04_PSC Length=12.67079 Units=m
New Line.LINE1Cmpd_20 Bus1=1957 Bus2=11300 phases=3 Linecode=.04_PSC Length=16.79491 Units=m
New Line.LINE1Cmpd_21 Bus1=1501 Bus2=1884 phases=3 Linecode=.04_PSC Length=12.79503 Units=m
New Line.LINE1Cmpd_22 Bus1=180 Bus2=193 phases=3 Linecode=4c_300_SAC Length=45.6678 Units=m
New Line.LINE1Cmpd_23 Bus1=1219 Bus2=1656 phases=3 Linecode=.0225_PSC Length=11.5527 Units=m
New Line.LINE1Cmpd_24 Bus1=1775 Bus2=11058 phases=3 Linecode=.0225_PSC Length=10.518906 Units=m
New Line.LINE1Cmpd_25 Bus1=1219 Bus2=1931 phases=3 Linecode=.0225_PSC Length=24.895724 Units=m
New Line.LINE1Cmpd_26 Bus1=1493 Bus2=11077 phases=3 Linecode=.04_PSC Length=17.147649 Units=m
New Line.LINE1Cmpd_27 Bus1=1802 Bus2=11298 phases=3 Linecode=.04_PSC Length=24.01968 Units=m
New Line.LINE1Cmpd_28 Bus1=1151 Bus2=1254 phases=3 Linecode=.0225_PSC Length=8.81054 Units=m
New Line.LINE1Cmpd_29 Bus1=1397 Bus2=1562 phases=3 Linecode=.0225_PSC Length=8.07748 Units=m
New Line.LINE1Cmpd_30 Bus1=1931 Bus2=11229 phases=3 Linecode=.0225_PSC Length=13.03891 Units=m
New Line.LINE1Cmpd_31 Bus1=11318 Bus2=11408 phases=3 Linecode=.04_PSC Length=13.939627 Units=m
New Line.LINE1Cmpd_32 Bus1=1193 Bus2=1364 phases=3 Linecode=.0225_PSC Length=17.51951 Units=m
New Line.LINE1Cmpd_33 Bus1=1412 Bus2=1870 phases=3 Linecode=.04_PSC Length=16.53393 Units=m
New Line.LINE1Cmpd_34 Bus1=1216 Bus2=1415 phases=3 Linecode=.0225_PSC Length=12.310759 Units=m
New Line.LINE1Cmpd_35 Bus1=11083 Bus2=11315 phases=3 Linecode=.0225_PSC Length=12.711038 Units=m
New Line.LINE1Cmpd_36 Bus1=1191 Bus2=1401 phases=3 Linecode=.0225_PSC Length=12.707701 Units=m
New Line.LINE1Cmpd_37 Bus1=11 Bus2=1315 phases=3 Linecode=.0225_PSC Length=12.688344 Units=m
New Line.LINE1Cmpd_38 Bus1=1795 Bus2=11097 phases=3 Linecode=.0225_PSC Length=10.487658 Units=m
New Line.LINE1Cmpd_39 Bus1=1447 Bus2=1795 phases=3 Linecode=.0225_PSC Length=19.96114 Units=m
New Line.LINE1Cmpd_40 Bus1=1936 Bus2=11327 phases=3 Linecode=.0225_PSC Length=15.67984 Units=m
New Line.LINE1Cmpd_41 Bus1=1468 Bus2=1819 phases=3 Linecode=.0225_PSC Length=10.876876 Units=m
New Line.LINE1Cmpd_42 Bus1=180 Bus2=1110 phases=3 Linecode=.0225_PSC Length=8.02622 Units=m
New Line.LINE1Cmpd_43 Bus1=1941 Bus2=11267 phases=3 Linecode=.04_PSC Length=11.320335 Units=m
New Line.LINE1Cmpd_44 Bus1=1115 Bus2=1151 phases=3 Linecode=4c_300_SAC Length=23.53183 Units=m
New Line.LINE1Cmpd_45 Bus1=11298 Bus2=11391 phases=3 Linecode=.04_PSC Length=12.962932 Units=m
New Line.LINE1Cmpd_46 Bus1=1535 Bus2=11168 phases=3 Linecode=.04_PSC Length=10.269334 Units=m
New Line.LINE1Cmpd_47 Bus1=11114 Bus2=11320 phases=3 Linecode=.04_PSC Length=14.84834 Units=m
New Line.LINE1Cmpd_48 Bus1=193 Bus2=1216 phases=3 Linecode=.0225_PSC Length=24.02556 Units=m
New Line.LINE1Cmpd_49 Bus1=11168 Bus2=11357 phases=3 Linecode=.04_PSC Length=17.04444 Units=m
New Line.LINE1Cmpd_50 Bus1=1535 Bus2=11114 phases=3 Linecode=.04_PSC Length=10.594048 Units=m
New Line.LINE1Cmpd_51 Bus1=11296 Bus2=11394 phases=3 Linecode=.04_PSC Length=12.474535 Units=m
New Line.LINE1Cmpd_52 Bus1=11242 Bus2=11401 phases=3 Linecode=.04_PSC Length=13.95499 Units=m
New Line.LINE1Cmpd_53 Bus1=1562 Bus2=1918 phases=3 Linecode=.0225_PSC Length=11.731908 Units=m
New Line.LINE1Cmpd_54 Bus1=1827 Bus2=11242 phases=3 Linecode=.04_PSC Length=18.113488 Units=m
New Line.LINE1Cmpd_55 Bus1=1364 Bus2=1710 phases=3 Linecode=.0225_PSC Length=13.661973 Units=m
New Line.LINE1Cmpd_56 Bus1=1443 Bus2=1936 phases=3 Linecode=.0225_PSC Length=15.786901 Units=m
New Line.LINE1Cmpd_57 Bus1=180 Bus2=1199 phases=3 Linecode=.0225_PSC Length=22.278452 Units=m
New Line.LINE1Cmpd_58 Bus1=1193 Bus2=1219 phases=3 Linecode=4c_185_SAC Length=25.0501 Units=m
New Line.LINE1Cmpd_59 Bus1=193 Bus2=1115 phases=3 Linecode=4c_300_SAC Length=3.40424 Units=m
New Line.LINE1Cmpd_60 Bus1=175 Bus2=180 phases=3 Linecode=4c_300_SAC Length=19.2816 Units=m
New Line.LINE1Cmpd_61 Bus1=1443 Bus2=1535 phases=3 Linecode=4c_120_SAC Length=28.0998 Units=m
New Line.LINE1Cmpd_62 Bus1=1412 Bus2=1447 phases=3 Linecode=4c_120_SAC Length=21.9159 Units=m
New Line.LINE1Cmpd_63 Bus1=1447 Bus2=1493 phases=3 Linecode=4c_120_SAC Length=24.6193 Units=m
New Line.LINE293 Bus1=11 Bus2=294 phases=3 Linecode=4c_.2 Length=1.2181 Units=m
New Line.LINE2185 Bus1=2182 Bus2=2186 phases=3 Linecode=4c_.1 Length=2.6494 Units=m
New Line.LINE2195 Bus1=2189 Bus2=2196 phases=3 Linecode=2c_.0225 Length=0.88352 Units=m
New Line.LINE2288 Bus1=2280 Bus2=2289 phases=3 Linecode=4c_.1 Length=3.9654 Units=m
New Line.LINE2297 Bus1=2289 Bus2=2298 phases=3 Linecode=4c_.1 Length=4.9005 Units=m
New Line.LINE2307 Bus1=2298 Bus2=2308 phases=3 Linecode=35_SAC_XSC Length=6.4564 Units=m
New Line.LINE2317 Bus1=2308 Bus2=2318 phases=3 Linecode=35_SAC_XSC Length=0.20294 Units=m
New Line.LINE2327 Bus1=2318 Bus2=2328 phases=3 Linecode=35_SAC_XSC Length=0.032062 Units=m
New Line.LINE2336 Bus1=2328 Bus2=2337 phases=3 Linecode=35_SAC_XSC Length=0.031401 Units=m
New Line.LINE2339 Bus1=2332 Bus2=2340 phases=3 Linecode=4c_.1 Length=0.84246 Units=m
New Line.LINE2345 Bus1=2337 Bus2=2346 phases=3 Linecode=35_SAC_XSC Length=0.031624 Units=m
New Line.LINE2348 Bus1=2340 Bus2=2349 phases=3 Linecode=3c_95_SAC_ASN Length=5.5989 Units=m
New Line.LINE2354 Bus1=2346 Bus2=2355 phases=3 Linecode=35_SAC_XSC Length=0.032249 Units=m
New Line.LINE2358 Bus1=2349 Bus2=2359 phases=3 Linecode=3c_95_SAC_ASN Length=1.3863 Units=m
New Line.LINE2364 Bus1=2355 Bus2=2365 phases=3 Linecode=35_SAC_XSC Length=0.03124 Units=m
New Line.LINE2368 Bus1=2359 Bus2=2369 phases=3 Linecode=3c_95_SAC_ASN Length=0.85948 Units=m
New Line.LINE2374 Bus1=2365 Bus2=2375 phases=3 Linecode=35_SAC_XSC Length=0.032016 Units=m
New Line.LINE2379 Bus1=2369 Bus2=2380 phases=3 Linecode=3c_95_SAC_ASN Length=5.5087 Units=m
New Line.LINE2385 Bus1=2375 Bus2=2386 phases=3 Linecode=35_SAC_XSC Length=0.031306 Units=m
New Line.LINE2390 Bus1=2380 Bus2=2391 phases=3 Linecode=3c_95_SAC_ASN Length=0.68748 Units=m
New Line.LINE2396 Bus1=2386 Bus2=2397 phases=3 Linecode=35_SAC_XSC Length=5.188 Units=m
New Line.LINE2401 Bus1=2391 Bus2=2402 phases=3 Linecode=3c_95_SAC_ASN Length=1.7396 Units=m
New Line.LINE2406 Bus1=2397 Bus2=2407 phases=3 Linecode=35_SAC_XSC Length=0.060083 Units=m
New Line.LINE2408 Bus1=2398 Bus2=2409 phases=3 Linecode=4c_.1 Length=0.96883 Units=m
New Line.LINE2412 Bus1=2402 Bus2=2413 phases=3 Linecode=3c_95_SAC_ASN Length=1.7834 Units=m
New Line.LINE2416 Bus1=2407 Bus2=2417 phases=3 Linecode=35_SAC_XSC Length=0.05954 Units=m
New Line.LINE2423 Bus1=2413 Bus2=2424 phases=3 Linecode=3c_95_SAC_ASN Length=2.6131 Units=m
New Line.LINE2427 Bus1=2417 Bus2=2428 phases=3 Linecode=35_SAC_XSC Length=0.060306 Units=m
New Line.LINE2433 Bus1=2424 Bus2=2434 phases=3 Linecode=3c_95_SAC_ASN Length=1.2589 Units=m
New Line.LINE2437 Bus1=2428 Bus2=2438 phases=3 Linecode=35_SAC_XSC Length=0.059816 Units=m
New Line.LINE2443 Bus1=2434 Bus2=2444 phases=3 Linecode=3c_95_SAC_ASN Length=1.1651 Units=m
New Line.LINE2447 Bus1=2438 Bus2=2448 phases=3 Linecode=35_SAC_XSC Length=0.059942 Units=m
New Line.LINE2453 Bus1=2444 Bus2=2454 phases=3 Linecode=3c_95_SAC_ASN Length=0.93901 Units=m
New Line.LINE2458 Bus1=2448 Bus2=2459 phases=3 Linecode=35_SAC_XSC Length=0.059482 Units=m
New Line.LINE2464 Bus1=2454 Bus2=2465 phases=3 Linecode=3c_95_SAC_ASN Length=4.1939 Units=m
New Line.LINE2469 Bus1=2459 Bus2=2470 phases=3 Linecode=35_SAC_XSC Length=0.060298 Units=m
New Line.LINE2475 Bus1=2465 Bus2=2476 phases=3 Linecode=3c_95_SAC_ASN Length=7.0907 Units=m
New Line.LINE2480 Bus1=2470 Bus2=2481 phases=3 Linecode=35_SAC_XSC Length=0.059211 Units=m
New Line.LINE2486 Bus1=2476 Bus2=2487 phases=3 Linecode=3c_95_SAC_ASN Length=3.4831 Units=m
New Line.LINE2491 Bus1=2481 Bus2=2492 phases=3 Linecode=35_SAC_XSC Length=7.8066 Units=m
New Line.LINE2497 Bus1=2487 Bus2=2498 phases=3 Linecode=3c_95_SAC_ASN Length=3.341 Units=m
New Line.LINE2502 Bus1=2492 Bus2=2503 phases=3 Linecode=35_SAC_XSC Length=0.087281 Units=m
New Line.LINE2508 Bus1=2498 Bus2=2509 phases=3 Linecode=2c_.0225 Length=0.13886 Units=m
New Line.LINE2514 Bus1=2503 Bus2=2515 phases=3 Linecode=35_SAC_XSC Length=0.088119 Units=m
New Line.LINE2520 Bus1=2509 Bus2=2521 phases=3 Linecode=2c_.0225 Length=0.15215 Units=m
New Line.LINE2526 Bus1=2515 Bus2=2527 phases=3 Linecode=35_SAC_XSC Length=0.086833 Units=m
New Line.LINE2532 Bus1=2521 Bus2=2533 phases=3 Linecode=2c_.0225 Length=0.10198 Units=m
New Line.LINE2538 Bus1=2527 Bus2=2539 phases=3 Linecode=35_SAC_XSC Length=0.088528 Units=m
New Line.LINE2544 Bus1=2533 Bus2=2545 phases=3 Linecode=2c_.0225 Length=13.5082 Units=m
New Line.LINE2550 Bus1=2539 Bus2=2551 phases=3 Linecode=35_SAC_XSC Length=0.086608 Units=m
New Line.LINE2556 Bus1=2545 Bus2=2557 phases=3 Linecode=2c_.0225 Length=0.24679 Units=m
New Line.LINE2561 Bus1=2550 Bus2=2562 phases=3 Linecode=4c_.1 Length=0.24965 Units=m
New Line.LINE2563 Bus1=2551 Bus2=2564 phases=3 Linecode=35_SAC_XSC Length=0.088021 Units=m
New Line.LINE2570 Bus1=2557 Bus2=2571 phases=3 Linecode=2c_.0225 Length=3.0587 Units=m
New Line.LINE2576 Bus1=2562 Bus2=2577 phases=3 Linecode=2c_.0225 Length=1.7761 Units=m
New Line.LINE2578 Bus1=2564 Bus2=2579 phases=3 Linecode=35_SAC_XSC Length=0.086886 Units=m
New Line.LINE2585 Bus1=2571 Bus2=2586 phases=3 Linecode=2c_.0225 Length=0.22008 Units=m
New Line.LINE2590 Bus1=2577 Bus2=2591 phases=3 Linecode=2c_.0225 Length=0.51965 Units=m
New Line.LINE2592 Bus1=2579 Bus2=2593 phases=3 Linecode=35_SAC_XSC Length=0.088023 Units=m
New Line.LINE2600 Bus1=2586 Bus2=2601 phases=3 Linecode=2c_.0225 Length=0.45287 Units=m
New Line.LINE2605 Bus1=2590 Bus2=2606 phases=3 Linecode=2c_.0225 Length=4.9432 Units=m
New Line.LINE2606 Bus1=2591 Bus2=2607 phases=3 Linecode=2c_.0225 Length=0.59612 Units=m
New Line.LINE2608 Bus1=2593 Bus2=2609 phases=3 Linecode=35_SAC_XSC Length=0.087131 Units=m
New Line.LINE2615 Bus1=2601 Bus2=2616 phases=3 Linecode=2c_.0225 Length=0.086534 Units=m
New Line.LINE2621 Bus1=2607 Bus2=2622 phases=3 Linecode=2c_.0225 Length=1.2376 Units=m
New Line.LINE2623 Bus1=2609 Bus2=2624 phases=3 Linecode=35_SAC_XSC Length=0.087922 Units=m
New Line.LINE2629 Bus1=2616 Bus2=2630 phases=3 Linecode=2c_.0225 Length=0.086266 Units=m
New Line.LINE2634 Bus1=2622 Bus2=2635 phases=3 Linecode=2c_.0225 Length=0.61017 Units=m
New Line.LINE2636 Bus1=2624 Bus2=2637 phases=3 Linecode=35_SAC_XSC Length=2.4352 Units=m
New Line.LINE2642 Bus1=2630 Bus2=2643 phases=3 Linecode=2c_.0225 Length=0.063781 Units=m
New Line.LINE2647 Bus1=2635 Bus2=2648 phases=3 Linecode=2c_.0225 Length=0.89609 Units=m
New Line.LINE2649 Bus1=2637 Bus2=2650 phases=3 Linecode=35_SAC_XSC Length=0.049336 Units=m
New Line.LINE2655 Bus1=2643 Bus2=2656 phases=3 Linecode=2c_.0225 Length=0.11205 Units=m
New Line.LINE2660 Bus1=2648 Bus2=2661 phases=3 Linecode=2c_.0225 Length=0.66893 Units=m
New Line.LINE2662 Bus1=2650 Bus2=2663 phases=3 Linecode=35_SAC_XSC Length=0.048765 Units=m
New Line.LINE2668 Bus1=2656 Bus2=2669 phases=3 Linecode=2c_.0225 Length=0.092762 Units=m
New Line.LINE2673 Bus1=2661 Bus2=2674 phases=3 Linecode=2c_.0225 Length=0.66592 Units=m
New Line.LINE2675 Bus1=2663 Bus2=2676 phases=3 Linecode=35_SAC_XSC Length=0.04982 Units=m
New Line.LINE2681 Bus1=2669 Bus2=2682 phases=3 Linecode=2c_.0225 Length=0.14512 Units=m
New Line.LINE2686 Bus1=2674 Bus2=2687 phases=3 Linecode=2c_.0225 Length=1.1555 Units=m
New Line.LINE2688 Bus1=2676 Bus2=2689 phases=3 Linecode=35_SAC_XSC Length=0.048918 Units=m
New Line.LINE2694 Bus1=2682 Bus2=2695 phases=3 Linecode=2c_.0225 Length=0.11516 Units=m
New Line.LINE2699 Bus1=2687 Bus2=2700 phases=3 Linecode=2c_.0225 Length=1.5979 Units=m
New Line.LINE2701 Bus1=2689 Bus2=2702 phases=3 Linecode=35_SAC_XSC Length=0.049739 Units=m
New Line.LINE2707 Bus1=2695 Bus2=2708 phases=3 Linecode=2c_.0225 Length=0.11562 Units=m
New Line.LINE2711 Bus1=2698 Bus2=2712 phases=3 Linecode=35_SAC_PSC Length=4.553 Units=m
New Line.LINE2713 Bus1=2700 Bus2=2714 phases=3 Linecode=2c_.0225 Length=2.913 Units=m
New Line.LINE2715 Bus1=2702 Bus2=2716 phases=3 Linecode=35_SAC_XSC Length=0.048702 Units=m
New Line.LINE2721 Bus1=2708 Bus2=2722 phases=3 Linecode=2c_.0225 Length=0.15212 Units=m
New Line.LINE2726 Bus1=2714 Bus2=2727 phases=3 Linecode=2c_.0225 Length=2.258 Units=m
New Line.LINE2728 Bus1=2716 Bus2=2729 phases=3 Linecode=35_SAC_XSC Length=0.048663 Units=m
New Line.LINE2734 Bus1=2722 Bus2=2735 phases=3 Linecode=2c_.0225 Length=0.16344 Units=m
New Line.LINE2739 Bus1=2727 Bus2=2740 phases=3 Linecode=2c_.0225 Length=0.17605 Units=m
New Line.LINE2741 Bus1=2729 Bus2=2742 phases=3 Linecode=35_SAC_XSC Length=0.05 Units=m
New Line.LINE2747 Bus1=2735 Bus2=2748 phases=3 Linecode=2c_.0225 Length=0.19483 Units=m
New Line.LINE2751 Bus1=2740 Bus2=2752 phases=3 Linecode=2c_.0225 Length=0.14311 Units=m
New Line.LINE2753 Bus1=2742 Bus2=2754 phases=3 Linecode=35_SAC_XSC Length=0.049032 Units=m
New Line.LINE2758 Bus1=2748 Bus2=2759 phases=3 Linecode=2c_.0225 Length=0.14016 Units=m
New Line.LINE2762 Bus1=2752 Bus2=2763 phases=3 Linecode=2c_.0225 Length=0.12869 Units=m
New Line.LINE2764 Bus1=2754 Bus2=2765 phases=3 Linecode=35_SAC_XSC Length=0.048466 Units=m
New Line.LINE2769 Bus1=2759 Bus2=2770 phases=3 Linecode=2c_.0225 Length=0.12259 Units=m
New Line.LINE2771 Bus1=2763 Bus2=2772 phases=3 Linecode=2c_.0225 Length=0.12381 Units=m
New Line.LINE2773 Bus1=2765 Bus2=2774 phases=3 Linecode=35_SAC_XSC Length=0.049396 Units=m
New Line.LINE2778 Bus1=2770 Bus2=2779 phases=3 Linecode=2c_.0225 Length=0.13634 Units=m
New Line.LINE2780 Bus1=2772 Bus2=2781 phases=3 Linecode=2c_.0225 Length=0.11831 Units=m
New Line.LINE2782 Bus1=2774 Bus2=2783 phases=3 Linecode=35_SAC_XSC Length=0.048727 Units=m
New Line.LINE2787 Bus1=2779 Bus2=2788 phases=3 Linecode=2c_.0225 Length=0.1192 Units=m
New Line.LINE2788 Bus1=2781 Bus2=2789 phases=3 Linecode=2c_.0225 Length=0.11934 Units=m
New Line.LINE2790 Bus1=2783 Bus2=2791 phases=3 Linecode=35_SAC_XSC Length=2.7036 Units=m
New Line.LINE2795 Bus1=2788 Bus2=2796 phases=3 Linecode=2c_.0225 Length=0.14591 Units=m
New Line.LINE2796 Bus1=2789 Bus2=2797 phases=3 Linecode=2c_.0225 Length=1.0862 Units=m
New Line.LINE2802 Bus1=2796 Bus2=2803 phases=3 Linecode=2c_.0225 Length=0.2319 Units=m
New Line.LINE2803 Bus1=2797 Bus2=2804 phases=3 Linecode=2c_.0225 Length=1.4055 Units=m
New Line.LINE2809 Bus1=2803 Bus2=2810 phases=3 Linecode=2c_.0225 Length=0.21646 Units=m
New Line.LINE2810 Bus1=2804 Bus2=2811 phases=3 Linecode=2c_.0225 Length=1.9041 Units=m
New Line.LINE2816 Bus1=2810 Bus2=2817 phases=3 Linecode=2c_.0225 Length=0.15124 Units=m
New Line.LINE2817 Bus1=2811 Bus2=2818 phases=3 Linecode=2c_.0225 Length=1.7776 Units=m
New Line.LINE2823 Bus1=2817 Bus2=2824 phases=3 Linecode=2c_.0225 Length=0.13119 Units=m
New Line.LINE2824 Bus1=2818 Bus2=2825 phases=3 Linecode=2c_.0225 Length=0.48061 Units=m
New Line.LINE2830 Bus1=2824 Bus2=2831 phases=3 Linecode=2c_.0225 Length=0.1514 Units=m
New Line.LINE2831 Bus1=2825 Bus2=2832 phases=3 Linecode=2c_.0225 Length=0.31501 Units=m
New Line.LINE2837 Bus1=2831 Bus2=2838 phases=3 Linecode=2c_.0225 Length=0.15624 Units=m
New Line.LINE2838 Bus1=2832 Bus2=2839 phases=3 Linecode=2c_.0225 Length=0.1543 Units=m
New Line.LINE2842 Bus1=2835 Bus2=2843 phases=3 Linecode=2c_.0225 Length=2.3735 Units=m
New Line.LINE2845 Bus1=2838 Bus2=2846 phases=3 Linecode=2c_.0225 Length=0.086052 Units=m
New Line.LINE2846 Bus1=2839 Bus2=2847 phases=3 Linecode=2c_.0225 Length=0.41307 Units=m
New Line.LINE2852 Bus1=2846 Bus2=2853 phases=3 Linecode=2c_.0225 Length=0.062651 Units=m
New Line.LINE2853 Bus1=2847 Bus2=2854 phases=3 Linecode=2c_.0225 Length=0.19138 Units=m
New Line.LINE2858 Bus1=2853 Bus2=2859 phases=3 Linecode=2c_.0225 Length=0.056603 Units=m
New Line.LINE2859 Bus1=2854 Bus2=2860 phases=3 Linecode=2c_.0225 Length=0.14468 Units=m
New Line.LINE2864 Bus1=2859 Bus2=2865 phases=3 Linecode=2c_.0225 Length=0.059808 Units=m
New Line.LINE2865 Bus1=2860 Bus2=2866 phases=3 Linecode=2c_.0225 Length=0.057872 Units=m
New Line.LINE2870 Bus1=2865 Bus2=2871 phases=3 Linecode=2c_.0225 Length=0.45287 Units=m
New Line.LINE2871 Bus1=2866 Bus2=2872 phases=3 Linecode=2c_.0225 Length=0.077078 Units=m
New Line.LINE2876 Bus1=2871 Bus2=2877 phases=3 Linecode=2c_.0225 Length=0.12456 Units=m
New Line.LINE2877 Bus1=2872 Bus2=2878 phases=3 Linecode=2c_.0225 Length=0.23848 Units=m
New Line.LINE2882 Bus1=2877 Bus2=2883 phases=3 Linecode=2c_.0225 Length=0.12297 Units=m
New Line.LINE2883 Bus1=2878 Bus2=2884 phases=3 Linecode=2c_.0225 Length=0.35564 Units=m
New Line.LINE2888 Bus1=2883 Bus2=2889 phases=3 Linecode=2c_.0225 Length=0.13813 Units=m
New Line.LINE2889 Bus1=2884 Bus2=2890 phases=3 Linecode=2c_.0225 Length=0.16378 Units=m
New Line.LINE2894 Bus1=2889 Bus2=2895 phases=3 Linecode=2c_.0225 Length=0.26249 Units=m
New Line.LINE2895 Bus1=2890 Bus2=2896 phases=3 Linecode=2c_.0225 Length=0.15333 Units=m
New Line.LINE2897 Bus1=2891 Bus2=2898 phases=3 Linecode=2c_.0225 Length=3.011 Units=m
New Line.LINE2901 Bus1=2895 Bus2=2902 phases=3 Linecode=2c_.0225 Length=0.68832 Units=m
New Line.LINE2902 Bus1=2896 Bus2=2903 phases=3 Linecode=2c_.0225 Length=0.13238 Units=m
New Line.LINE2907 Bus1=2902 Bus2=2908 phases=3 Linecode=2c_.0225 Length=0.4842 Units=m
New Line.LINE2908 Bus1=2902 Bus2=2909 phases=3 Linecode=2c_.0225 Length=0.4842 Units=m
New Line.LINE2909 Bus1=2903 Bus2=2910 phases=3 Linecode=2c_.0225 Length=0.19388 Units=m
New Line.LINE2914 Bus1=2910 Bus2=2915 phases=3 Linecode=2c_.0225 Length=0.15124 Units=m
New Line.LINE2919 Bus1=2914 Bus2=2920 phases=3 Linecode=2c_.0225 Length=1.5746 Units=m
New Line.LINE2920 Bus1=2915 Bus2=2921 phases=3 Linecode=2c_.0225 Length=0.1364 Units=m
New Line.LINE2925 Bus1=2921 Bus2=2926 phases=3 Linecode=2c_.0225 Length=0.16494 Units=m
New Line.LINE2930 Bus1=2926 Bus2=2931 phases=3 Linecode=2c_.0225 Length=0.068425 Units=m
New Line.LINE2935 Bus1=2931 Bus2=2936 phases=3 Linecode=2c_.0225 Length=0.10536 Units=m
New Line.LINE2940 Bus1=2936 Bus2=2941 phases=3 Linecode=2c_.0225 Length=0.112 Units=m
New Line.LINE2944 Bus1=2941 Bus2=2945 phases=3 Linecode=2c_.0225 Length=0.11377 Units=m
New Line.LINE2948 Bus1=2945 Bus2=2949 phases=3 Linecode=2c_.0225 Length=0.096768 Units=m
New Line.LINE2952 Bus1=2949 Bus2=2953 phases=3 Linecode=2c_.0225 Length=0.10432 Units=m
New Line.LINE2956 Bus1=2953 Bus2=2957 phases=3 Linecode=2c_.0225 Length=0.1022 Units=m
New Line.LINE2960 Bus1=2957 Bus2=2961 phases=3 Linecode=2c_.0225 Length=0.078873 Units=m
New Line.LINE2964 Bus1=2961 Bus2=2965 phases=3 Linecode=2c_.0225 Length=0.12324 Units=m
New Line.LINE2968 Bus1=2965 Bus2=2969 phases=3 Linecode=2c_.0225 Length=0.1294 Units=m
New Line.LINE2972 Bus1=2969 Bus2=2973 phases=3 Linecode=2c_.0225 Length=0.081492 Units=m