New Transformer.TR1 Buses=[SourceBus 11] Conns=[Delta Wye] kVs=[11 0.416] kVAs=[750 750] XHL=1 r=1.6896 x=6.2128
