New Line.LINE133 Bus1=133 Bus2=134 phases=3 Linecode=5c_.1 Length=3.069 Units=m
New Line.LINE135 Bus1=134 Bus2=136 phases=3 Linecode=5c_.1 Length=13.3501 Units=m
New Line.LINE154 Bus1=152 Bus2=155 phases=3 Linecode=2c_.0145 Length=3.8601 Units=m
New Line.LINE195 Bus1=194 Bus2=196 phases=3 Linecode=2c_.0145 Length=6.8778 Units=m
New Line.LINE198 Bus1=196 Bus2=199 phases=3 Linecode=2c_.0145 Length=5.3558 Units=m
New Line.LINE1Cmpd_0 Bus1=11 Bus2=133 phases=3 Linecode=5c_.06 Length=26.866511 Units=m
New Line.LINE1Cmpd_1 Bus1=134 Bus2=152 phases=3 Linecode=2c_.0145 Length=14.408557 Units=m
New Line.LINE1Cmpd_2 Bus1=196 Bus2=1130 phases=3 Linecode=2c_.0145 Length=11.340087 Units=m
New Line.LINE1Cmpd_3 Bus1=152 Bus2=187 phases=3 Linecode=2c_.0145 Length=11.438564 Units=m
New Line.LINE1Cmpd_4 Bus1=136 Bus2=194 phases=3 Linecode=5c_.04 Length=32.18877 Units=m
New Line.LINE251 Bus1=249 Bus2=252 phases=3 Linecode=2c_.0225 Length=6.7057 Units=m
New Line.LINE255 Bus1=252 Bus2=256 phases=3 Linecode=2c_.0225 Length=5.5592 Units=m
New Line.LINE256 Bus1=252 Bus2=257 phases=3 Linecode=2c_.0225 Length=5.5592 Units=m
New Line.LINE267 Bus1=263 Bus2=268 phases=3 Linecode=4c_.0145 Length=8.2989 Units=m
New Line.LINE272 Bus1=268 Bus2=273 phases=3 Linecode=4c_.0145 Length=5.6569 Units=m
New Line.LINE273 Bus1=268 Bus2=274 phases=3 Linecode=4c_.0145 Length=5.6569 Units=m
New Line.LINE298 Bus1=295 Bus2=299 phases=3 Linecode=5c_.06 Length=5.3315 Units=m
New Line.LINE2102 Bus1=299 Bus2=2103 phases=3 Linecode=4c_.0145 Length=8.9794 Units=m
New Line.LINE2106 Bus1=2103 Bus2=2107 phases=3 Linecode=25_SAC_XC Length=4.4241 Units=m
New Line.LINE2139 Bus1=2136 Bus2=2140 phases=3 Linecode=5c_.06 Length=4.2893 Units=m
New Line.LINE2Cmpd_0 Bus1=11 Bus2=232 phases=3 Linecode=5c_.1 Length=10.974041 Units=m
New Line.LINE2Cmpd_1 Bus1=238 Bus2=249 phases=3 Linecode=5c_.06 Length=14.05352 Units=m
New Line.LINE2Cmpd_2 Bus1=2150 Bus2=2153 phases=3 Linecode=2c_.0225 Length=11.2595 Units=m
New Line.LINE2Cmpd_3 Bus1=263 Bus2=295 phases=3 Linecode=5c_.06 Length=14.28693 Units=m
New Line.LINE2Cmpd_4 Bus1=2108 Bus2=2128 phases=3 Linecode=5c_.06 Length=18.9318 Units=m
New Line.LINE2Cmpd_5 Bus1=2176 Bus2=2179 phases=3 Linecode=25_SAC_XC Length=13.0063 Units=m
New Line.LINE2Cmpd_6 Bus1=2154 Bus2=2176 phases=3 Linecode=5c_.06 Length=48.21939 Units=m
New Line.LINE2Cmpd_7 Bus1=2181 Bus2=2184 phases=3 Linecode=25_SAC_XC Length=13.1125 Units=m
New Line.LINE2Cmpd_8 Bus1=2185 Bus2=2188 phases=3 Linecode=25_SAC_XC Length=13.147 Units=m
New Line.LINE2Cmpd_9 Bus1=2185 Bus2=2190 phases=3 Linecode=5c_.06 Length=8.6875 Units=m
New Line.LINE2Cmpd_10 Bus1=249 Bus2=263 phases=3 Linecode=5c_.06 Length=13.673 Units=m
New Line.LINE2Cmpd_11 Bus1=2176 Bus2=2181 phases=3 Linecode=5c_.06 Length=13.5007 Units=m
New Line.LINE2Cmpd_12 Bus1=2140 Bus2=2145 phases=3 Linecode=2c_.0225 Length=16.7098 Units=m
New Line.LINE2Cmpd_13 Bus1=295 Bus2=2102 phases=3 Linecode=2c_.0145 Length=12.6917 Units=m
New Line.LINE2Cmpd_14 Bus1=2150 Bus2=2154 phases=3 Linecode=5c_.06 Length=3.99381 Units=m
New Line.LINE2Cmpd_15 Bus1=2108 Bus2=2120 phases=3 Linecode=16_PSC Length=14.13663 Units=m
New Line.LINE2Cmpd_16 Bus1=2146 Bus2=2150 phases=3 Linecode=5c_.06 Length=4.433323 Units=m
New Line.LINE2Cmpd_17 Bus1=2128 Bus2=2136 phases=3 Linecode=5c_.06 Length=7.2942 Units=m
New Line.LINE2Cmpd_18 Bus1=2154 Bus2=2157 phases=3 Linecode=2c_.0225 Length=12.461 Units=m
New Line.LINE2Cmpd_19 Bus1=2136 Bus2=2142 phases=3 Linecode=2c_.0225 Length=16.4094 Units=m
New Line.LINE2Cmpd_20 Bus1=2190 Bus2=2193 phases=3 Linecode=25_SAC_XC Length=12.1506 Units=m
New Line.LINE2Cmpd_21 Bus1=299 Bus2=2108 phases=3 Linecode=5c_.06 Length=12.0566 Units=m
New Line.LINE2Cmpd_22 Bus1=2128 Bus2=2138 phases=3 Linecode=2c_.0225 Length=15.34925 Units=m
New Line.LINE2Cmpd_23 Bus1=232 Bus2=238 phases=3 Linecode=5c_.06 Length=7.7038 Units=m
New Line.LINE2Cmpd_24 Bus1=238 Bus2=245 phases=3 Linecode=2c_.0225 Length=13.3983 Units=m
New Line.LINE2Cmpd_25 Bus1=2140 Bus2=2146 phases=3 Linecode=5c_.06 Length=8.41169 Units=m
New Line.LINE2Cmpd_26 Bus1=2146 Bus2=2149 phases=3 Linecode=2c_.0225 Length=10.4185 Units=m
New Line.LINE2Cmpd_27 Bus1=2181 Bus2=2185 phases=3 Linecode=5c_.06 Length=9.4579 Units=m
New Line.LINE365 Bus1=364 Bus2=366 phases=3 Linecode=2c_.0145 Length=16.4023 Units=m
New Line.LINE366 Bus1=364 Bus2=367 phases=3 Linecode=5c_.04 Length=9.2431 Units=m
New Line.LINE368 Bus1=366 Bus2=369 phases=3 Linecode=2c_.0145 Length=4.5267 Units=m
New Line.LINE370 Bus1=367 Bus2=371 phases=3 Linecode=2c_.0145 Length=15.7165 Units=m
New Line.LINE371 Bus1=367 Bus2=372 phases=3 Linecode=5c_.04 Length=5.5802 Units=m
New Line.LINE374 Bus1=371 Bus2=375 phases=3 Linecode=2c_.0145 Length=3.8716 Units=m
New Line.LINE3111 Bus1=3108 Bus2=3112 phases=3 Linecode=2c_.0145 Length=6.5048 Units=m
New Line.LINE3118 Bus1=3112 Bus2=3119 phases=3 Linecode=2c_.0145 Length=4.7841 Units=m
New Line.LINE3195 Bus1=3190 Bus2=3196 phases=3 Linecode=4c_.2_SAC Length=10.9381 Units=m
New Line.LINE3196 Bus1=3190 Bus2=3197 phases=3 Linecode=4c_.2_SAC Length=9.3902 Units=m
New Line.LINE3201 Bus1=3196 Bus2=3202 phases=3 Linecode=5c_.1 Length=12.0138 Units=m
New Line.LINE3203 Bus1=3197 Bus2=3204 phases=3 Linecode=2c_.0145 Length=6.6277 Units=m
New Line.LINE3209 Bus1=3202 Bus2=3210 phases=3 Linecode=5c_.1 Length=10.1102 Units=m
New Line.LINE3210 Bus1=3204 Bus2=3211 phases=3 Linecode=2c_.0145 Length=5.294 Units=m
New Line.LINE3219 Bus1=3210 Bus2=3220 phases=3 Linecode=5c_.1 Length=4.205 Units=m
New Line.LINE3225 Bus1=3217 Bus2=3226 phases=3 Linecode=2c_.0225 Length=6.2974 Units=m
New Line.LINE3230 Bus1=3220 Bus2=3231 phases=3 Linecode=5c_.1 Length=6.1189 Units=m
New Line.LINE3250 Bus1=3240 Bus2=3251 phases=3 Linecode=2c_.0225 Length=5.703 Units=m
New Line.LINE3264 Bus1=3253 Bus2=3265 phases=3 Linecode=2c_.02 Length=6.8653 Units=m
New Line.LINE3272 Bus1=3261 Bus2=3273 phases=3 Linecode=2c_.0225 Length=5.9991 Units=m
New Line.LINE3313 Bus1=3301 Bus2=3314 phases=3 Linecode=4c_.3_SAC Length=2.3228 Units=m
New Line.LINE3318 Bus1=3304 Bus2=3319 phases=3 Linecode=2c_.0145 Length=1.7735 Units=m
New Line.LINE3325 Bus1=3310 Bus2=3326 phases=3 Linecode=2c_.0225 Length=5.8102 Units=m
New Line.LINE3331 Bus1=3314 Bus2=3332 phases=3 Linecode=4c_.3_SAC Length=1.0664 Units=m
New Line.LINE3360 Bus1=3344 Bus2=3361 phases=3 Linecode=2c_.0225 Length=5.1196 Units=m
New Line.LINE3441 Bus1=3426 Bus2=3442 phases=3 Linecode=5c_.1 Length=5.8671 Units=m
New Line.LINE3445 Bus1=3429 Bus2=3446 phases=3 Linecode=4c_.3_SAC Length=4.3271 Units=m
New Line.LINE3497 Bus1=3479 Bus2=3498 phases=3 Linecode=4c_.3_SAC Length=8.6209 Units=m
New Line.LINE3510 Bus1=3492 Bus2=3511 phases=3 Linecode=2c_.0225 Length=5.855 Units=m
New Line.LINE3513 Bus1=3493 Bus2=3514 phases=3 Linecode=5c_.1 Length=5.2341 Units=m
New Line.LINE3523 Bus1=3503 Bus2=3524 phases=3 Linecode=4c_185_SAC_XC Length=1.5199 Units=m
New Line.LINE3535 Bus1=3514 Bus2=3536 phases=3 Linecode=5c_.1 Length=4.0669 Units=m
New Line.LINE3554 Bus1=3534 Bus2=3555 phases=3 Linecode=2c_.0225 Length=4.7256 Units=m
New Line.LINE3558 Bus1=3536 Bus2=3559 phases=3 Linecode=5c_.1 Length=4.06 Units=m
New Line.LINE3578 Bus1=3557 Bus2=3579 phases=3 Linecode=2c_.0145 Length=5.7822 Units=m
New Line.LINE3589 Bus1=3565 Bus2=3590 phases=3 Linecode=4c_.3_SAC Length=0.4011 Units=m
New Line.LINE3708 Bus1=3684 Bus2=3709 phases=3 Linecode=4c_.3_SAC Length=4.2341 Units=m
New Line.LINE3718 Bus1=3693 Bus2=3719 phases=3 Linecode=5c_.1 Length=1.3761 Units=m
New Line.LINE3744 Bus1=3719 Bus2=3745 phases=3 Linecode=2c_.0225 Length=15.7755 Units=m
New Line.LINE3745 Bus1=3719 Bus2=3746 phases=3 Linecode=5c_.1 Length=8.6688 Units=m
New Line.LINE3768 Bus1=3742 Bus2=3769 phases=3 Linecode=4c_.2_SAC Length=3.7277 Units=m
New Line.LINE3772 Bus1=3745 Bus2=3773 phases=3 Linecode=2c_.0225 Length=4.1111 Units=m
New Line.LINE3774 Bus1=3746 Bus2=3775 phases=3 Linecode=2c_.0225 Length=7.8064 Units=m
New Line.LINE3777 Bus1=3748 Bus2=3778 phases=3 Linecode=2c_.0145 Length=4.7921 Units=m
New Line.LINE3804 Bus1=3775 Bus2=3805 phases=3 Linecode=2c_.0225 Length=5.3643 Units=m
New Line.LINE3821 Bus1=3792 Bus2=3822 phases=3 Linecode=4c_.3_SAC Length=2.516 Units=m
New Line.LINE3837 Bus1=3808 Bus2=3838 phases=3 Linecode=2c_.0225 Length=14.7892 Units=m
New Line.LINE3841 Bus1=3812 Bus2=3842 phases=3 Linecode=25_SAC_PC Length=4.7999 Units=m
New Line.LINE3870 Bus1=3838 Bus2=3871 phases=3 Linecode=2c_.0225 Length=5.173 Units=m
New Line.LINE3921 Bus1=3890 Bus2=3922 phases=3 Linecode=.0225 Length=2.2415 Units=m
New Line.LINE3942 Bus1=3910 Bus2=3943 phases=3 Linecode=.0225 Length=3.0653 Units=m
New Line.LINE3979 Bus1=3947 Bus2=3980 phases=3 Linecode=.0225 Length=3.6077 Units=m
New Line.LINE31046 Bus1=31019 Bus2=31047 phases=3 Linecode=2c_.0225 Length=2.423 Units=m
New Line.LINE31060 Bus1=31033 Bus2=31061 phases=3 Linecode=2c_.0225 Length=7.3214 Units=m
New Line.LINE31088 Bus1=31061 Bus2=31089 phases=3 Linecode=2c_.0225 Length=4.9293 Units=m
New Line.LINE31114 Bus1=31085 Bus2=31115 phases=3 Linecode=.0225 Length=1.5228 Units=m
New Line.LINE31137 Bus1=31112 Bus2=31138 phases=3 Linecode=4c_.2_SAC Length=1.291 Units=m
New Line.LINE31157 Bus1=31133 Bus2=31158 phases=3 Linecode=.0225 Length=3.0904 Units=m
New Line.LINE31171 Bus1=31147 Bus2=31172 phases=3 Linecode=2c_.04 Length=6.9051 Units=m
New Line.LINE31192 Bus1=31171 Bus2=31193 phases=3 Linecode=2c_.0225 Length=16.3414 Units=m
New Line.LINE31205 Bus1=31185 Bus2=31206 phases=3 Linecode=.0225 Length=2.2753 Units=m
New Line.LINE31215 Bus1=31193 Bus2=31216 phases=3 Linecode=2c_.0225 Length=5.5344 Units=m
New Line.LINE31233 Bus1=31213 Bus2=31234 phases=3 Linecode=2c_.04 Length=7.3193 Units=m
New Line.LINE31247 Bus1=31227 Bus2=31248 phases=3 Linecode=2c_.04 Length=8.1082 Units=m
New Line.LINE31281 Bus1=31262 Bus2=31282 phases=3 Linecode=2c_.04 Length=8.0631 Units=m
New Line.LINE31301 Bus1=31281 Bus2=31302 phases=3 Linecode=.0225 Length=2.7558 Units=m
New Line.LINE31309 Bus1=31288 Bus2=31310 phases=3 Linecode=.04 Length=3.1201 Units=m
New Line.LINE31322 Bus1=31300 Bus2=31323 phases=3 Linecode=2c_.0225 Length=7.0982 Units=m
New Line.LINE31345 Bus1=31323 Bus2=31346 phases=3 Linecode=2c_.0225 Length=5.0821 Units=m
New Line.LINE31370 Bus1=31348 Bus2=31371 phases=3 Linecode=2c_.0225 Length=13.9667 Units=m
New Line.LINE31391 Bus1=31371 Bus2=31392 phases=3 Linecode=2c_.0225 Length=5.9858 Units=m
New Line.LINE31408 Bus1=31386 Bus2=31409 phases=3 Linecode=.0225 Length=3.0362 Units=m
New Line.LINE31416 Bus1=31395 Bus2=31417 phases=3 Linecode=5c_.1 Length=3.2413 Units=m
New Line.LINE31417 Bus1=31395 Bus2=31418 phases=3 Linecode=2c_.0225 Length=8.34 Units=m
New Line.LINE31438 Bus1=31417 Bus2=31439 phases=3 Linecode=5c_.1 Length=11.0401 Units=m
New Line.LINE31439 Bus1=31417 Bus2=31440 phases=3 Linecode=2c_.0225 Length=15.5425 Units=m
New Line.LINE31440 Bus1=31418 Bus2=31441 phases=3 Linecode=2c_.0225 Length=4.104 Units=m
New Line.LINE31461 Bus1=31439 Bus2=31462 phases=3 Linecode=5c_.1 Length=3.6452 Units=m
New Line.LINE31462 Bus1=31439 Bus2=31463 phases=3 Linecode=2c_.0225 Length=8.4494 Units=m
New Line.LINE31463 Bus1=31440 Bus2=31464 phases=3 Linecode=2c_.0225 Length=5.7691 Units=m
New Line.LINE31486 Bus1=31462 Bus2=31487 phases=3 Linecode=2c_.0225 Length=14.6538 Units=m
New Line.LINE31487 Bus1=31463 Bus2=31488 phases=3 Linecode=2c_.0225 Length=3.5639 Units=m
New Line.LINE31512 Bus1=31487 Bus2=31513 phases=3 Linecode=2c_.0225 Length=5.2235 Units=m
New Line.LINE31517 Bus1=31492 Bus2=31518 phases=3 Linecode=2c_.04 Length=7.0362 Units=m
New Line.LINE31562 Bus1=31534 Bus2=31563 phases=3 Linecode=.0225 Length=3.4583 Units=m
New Line.LINE31587 Bus1=31559 Bus2=31588 phases=3 Linecode=.0225 Length=6.2157 Units=m
New Line.LINE31592 Bus1=31562 Bus2=31593 phases=3 Linecode=4c_.2_SAC Length=8.7328 Units=m
New Line.LINE31601 Bus1=31573 Bus2=31602 phases=3 Linecode=2c_.0225 Length=9.959 Units=m
New Line.LINE31623 Bus1=31593 Bus2=31624 phases=3 Linecode=4c_.2_SAC Length=1.8971 Units=m
New Line.LINE31630 Bus1=31602 Bus2=31631 phases=3 Linecode=2c_.0225 Length=4.7055 Units=m
New Line.LINE31710 Bus1=31686 Bus2=31711 phases=3 Linecode=2c_.0145 Length=3.2796 Units=m
New Line.LINE31732 Bus1=31709 Bus2=31733 phases=3 Linecode=.0225 Length=3.619 Units=m
New Line.LINE31753 Bus1=31731 Bus2=31754 phases=3 Linecode=3c_185_SAC_XC Length=1.733 Units=m
New Line.LINE31799 Bus1=31782 Bus2=31800 phases=3 Linecode=2c_.04 Length=7.0412 Units=m
New Line.LINE31828 Bus1=31808 Bus2=31829 phases=3 Linecode=3c_185_SAC_XC Length=11.0152 Units=m
New Line.LINE31852 Bus1=31832 Bus2=31853 phases=3 Linecode=3c_185_SAC_XC Length=1.4471 Units=m
New Line.LINE31968 Bus1=31945 Bus2=31969 phases=3 Linecode=3c_185_SAC_XC Length=0.66598 Units=m
New Line.LINE31981 Bus1=31957 Bus2=31982 phases=3 Linecode=2c_.0225 Length=11.645 Units=m
New Line.LINE31992 Bus1=31967 Bus2=31993 phases=3 Linecode=.04 Length=2.1571 Units=m
New Line.LINE32009 Bus1=31982 Bus2=32010 phases=3 Linecode=2c_.0225 Length=2.4632 Units=m
New Line.LINE32204 Bus1=32181 Bus2=32205 phases=3 Linecode=2c_.0225 Length=10.49 Units=m
New Line.LINE32226 Bus1=32205 Bus2=32227 phases=3 Linecode=2c_.0225 Length=3.2598 Units=m
New Line.LINE32248 Bus1=32226 Bus2=32249 phases=3 Linecode=25_SAC_XC Length=0.41289 Units=m
New Line.LINE32702 Bus1=32696 Bus2=32703 phases=3 Linecode=3c_185_SAC_XC Length=2.0026 Units=m
New Line.LINE32711 Bus1=32703 Bus2=32712 phases=3 Linecode=35_SAC_PC Length=0.255 Units=m
New Line.LINE32720 Bus1=32712 Bus2=32721 phases=3 Linecode=35_SAC_PC Length=0.23847 Units=m
New Line.LINE3Cmpd_0 Bus1=3446 Bus2=3910 phases=3 Linecode=.0225 Length=13.690472 Units=m
New Line.LINE3Cmpd_1 Bus1=31969 Bus2=32521 phases=3 Linecode=35_SAC_PC Length=30.983013 Units=m
New Line.LINE3Cmpd_2 Bus1=3590 Bus2=31281 phases=3 Linecode=.0225 Length=13.707108 Units=m
New Line.LINE3Cmpd_3 Bus1=322 Bus2=364 phases=3 Linecode=5c_.04 Length=59.882128 Units=m
New Line.LINE3Cmpd_4 Bus1=3479 Bus2=31147 phases=3 Linecode=2c_.04 Length=18.3049 Units=m
New Line.LINE3Cmpd_5 Bus1=32696 Bus2=32816 phases=3 Linecode=35_SAC_PC Length=11.422715 Units=m
New Line.LINE3Cmpd_6 Bus1=3565 Bus2=31492 phases=3 Linecode=2c_.04 Length=18.215196 Units=m
New Line.LINE3Cmpd_7 Bus1=31967 Bus2=32237 phases=3 Linecode=.04 Length=12.306912 Units=m
New Line.LINE3Cmpd_8 Bus1=3709 Bus2=31262 phases=3 Linecode=2c_.04 Length=18.21355 Units=m
New Line.LINE3Cmpd_9 Bus1=32353 Bus2=32548 phases=3 Linecode=35_SAC_PC Length=9.46572 Units=m
New Line.LINE3Cmpd_10 Bus1=32566 Bus2=32666 phases=3 Linecode=3c_185_SAC_XC Length=15.64825 Units=m
New Line.LINE3Cmpd_11 Bus1=3261 Bus2=3531 phases=3 Linecode=2c_.0225 Length=10.806657 Units=m
New Line.LINE3Cmpd_12 Bus1=31928 Bus2=32587 phases=3 Linecode=35_SAC_PC Length=25.459393 Units=m
New Line.LINE3Cmpd_13 Bus1=3808 Bus2=31033 phases=3 Linecode=5c_.1 Length=9.85138 Units=m
New Line.LINE3Cmpd_14 Bus1=3769 Bus2=31213 phases=3 Linecode=2c_.04 Length=21.01598 Units=m
New Line.LINE3Cmpd_15 Bus1=32110 Bus2=32181 phases=3 Linecode=5c_.1 Length=9.3952 Units=m
New Line.LINE3Cmpd_16 Bus1=31945 Bus2=32647 phases=3 Linecode=35_SAC_PC Length=18.271135 Units=m
New Line.LINE3Cmpd_17 Bus1=31112 Bus2=31684 phases=3 Linecode=2c_.04 Length=25.81117 Units=m
New Line.LINE3Cmpd_18 Bus1=31853 Bus2=32621 phases=3 Linecode=35_SAC_PC Length=16.833694 Units=m
New Line.LINE3Cmpd_19 Bus1=3616 Bus2=31133 phases=3 Linecode=.0225 Length=12.809783 Units=m
New Line.LINE3Cmpd_20 Bus1=3332 Bus2=31146 phases=3 Linecode=2c_.04 Length=26.321344 Units=m
New Line.LINE3Cmpd_21 Bus1=31316 Bus2=31967 phases=3 Linecode=.04 Length=19.054067 Units=m
New Line.LINE3Cmpd_22 Bus1=32353 Bus2=32566 phases=3 Linecode=3c_185_SAC_XC Length=14.73033 Units=m
New Line.LINE3Cmpd_23 Bus1=31487 Bus2=31762 phases=3 Linecode=2c_.0225 Length=10.08885 Units=m
New Line.LINE3Cmpd_24 Bus1=3812 Bus2=31093 phases=3 Linecode=25_SAC_PC Length=8.236825 Units=m
New Line.LINE3Cmpd_25 Bus1=31832 Bus2=32555 phases=3 Linecode=35_SAC_PC Length=12.481621 Units=m
New Line.LINE3Cmpd_26 Bus1=31791 Bus2=32501 phases=3 Linecode=35_SAC_PC Length=25.302843 Units=m
New Line.LINE3Cmpd_27 Bus1=32110 Bus2=32349 phases=3 Linecode=35_PC Length=23.97515 Units=m
New Line.LINE3Cmpd_28 Bus1=3559 Bus2=31064 phases=3 Linecode=.0225 Length=15.573482 Units=m
New Line.LINE3Cmpd_29 Bus1=31808 Bus2=32092 phases=3 Linecode=35_SAC_PC Length=9.210239 Units=m
New Line.LINE3Cmpd_30 Bus1=3418 Bus2=3748 phases=3 Linecode=2c_.0145 Length=11.500669 Units=m
New Line.LINE3Cmpd_31 Bus1=3399 Bus2=3890 phases=3 Linecode=.0225 Length=13.438348 Units=m
New Line.LINE3Cmpd_32 Bus1=31853 Bus2=31945 phases=3 Linecode=3c_185_SAC_XC Length=4.90628 Units=m
New Line.LINE3Cmpd_33 Bus1=31178 Bus2=31222 phases=3 Linecode=4c_.3_SAC Length=3.1342 Units=m
New Line.LINE3Cmpd_34 Bus1=3684 Bus2=31019 phases=3 Linecode=2c_.0225 Length=12.76873 Units=m
New Line.LINE3Cmpd_35 Bus1=3451 Bus2=3809 phases=3 Linecode=2c_.0225 Length=13.810235 Units=m
New Line.LINE3Cmpd_36 Bus1=31222 Bus2=31446 phases=3 Linecode=.04 Length=12.75775 Units=m
New Line.LINE3Cmpd_37 Bus1=31453 Bus2=31562 phases=3 Linecode=4c_.2_SAC Length=13.0604 Units=m
New Line.LINE3Cmpd_38 Bus1=32687 Bus2=32902 phases=3 Linecode=35_SAC_PC Length=17.704243 Units=m
New Line.LINE3Cmpd_39 Bus1=32631 Bus2=32752 phases=3 Linecode=35_SAC_PC Length=8.463458 Units=m
New Line.LINE3Cmpd_40 Bus1=3429 Bus2=31381 phases=3 Linecode=3c_185_SAC_XC Length=56.50714 Units=m
New Line.LINE3Cmpd_41 Bus1=3792 Bus2=31155 phases=3 Linecode=.0225 Length=15.49491 Units=m
New Line.LINE3Cmpd_42 Bus1=32189 Bus2=32466 phases=3 Linecode=35_SAC_PC Length=10.091518 Units=m
New Line.LINE3Cmpd_43 Bus1=3310 Bus2=3455 phases=3 Linecode=2c_.0225 Length=15.18652 Units=m
New Line.LINE3Cmpd_44 Bus1=3917 Bus2=31782 phases=3 Linecode=2c_.04 Length=21.760946 Units=m
New Line.LINE3Cmpd_45 Bus1=32721 Bus2=32876 phases=3 Linecode=35_SAC_PC Length=30.548584 Units=m
New Line.LINE3Cmpd_46 Bus1=31463 Bus2=31763 phases=3 Linecode=2c_.0225 Length=11.92208 Units=m
New Line.LINE3Cmpd_47 Bus1=32666 Bus2=32826 phases=3 Linecode=35_SAC_PC Length=15.66475 Units=m
New Line.LINE3Cmpd_48 Bus1=31381 Bus2=32064 phases=3 Linecode=35_SAC_PC Length=14.289175 Units=m
New Line.LINE3Cmpd_49 Bus1=31440 Bus2=31764 phases=3 Linecode=2c_.0225 Length=10.32532 Units=m
New Line.LINE3Cmpd_50 Bus1=31138 Bus2=31386 phases=3 Linecode=.0225 Length=12.36851 Units=m
New Line.LINE3Cmpd_51 Bus1=32717 Bus2=32900 phases=3 Linecode=35_SAC_PC Length=20.379342 Units=m
New Line.LINE3Cmpd_52 Bus1=31829 Bus2=32189 phases=3 Linecode=3c_185_SAC_XC Length=20.13974 Units=m
New Line.LINE3Cmpd_53 Bus1=31427 Bus2=32230 phases=3 Linecode=35_SAC_PC Length=24.808473 Units=m
New Line.LINE3Cmpd_54 Bus1=3775 Bus2=31001 phases=3 Linecode=2c_.0225 Length=8.5602 Units=m
New Line.LINE3Cmpd_55 Bus1=3693 Bus2=3967 phases=3 Linecode=16_PSC Length=14.32208 Units=m
New Line.LINE3Cmpd_56 Bus1=31316 Bus2=31453 phases=3 Linecode=4c_.2_SAC Length=4.532525 Units=m
New Line.LINE3Cmpd_57 Bus1=31307 Bus2=31744 phases=3 Linecode=2c_.0225 Length=26.69981 Units=m
New Line.LINE3Cmpd_58 Bus1=31731 Bus2=32199 phases=3 Linecode=35_SAC_PC Length=13.005602 Units=m
New Line.LINE3Cmpd_59 Bus1=3742 Bus2=31085 phases=3 Linecode=.0225 Length=13.33497 Units=m
New Line.LINE3Cmpd_60 Bus1=31928 Bus2=32489 phases=3 Linecode=35_SAC_PC Length=23.480199 Units=m
New Line.LINE3Cmpd_61 Bus1=3231 Bus2=3287 phases=3 Linecode=5c_.1 Length=11.7381 Units=m
New Line.LINE3Cmpd_62 Bus1=31386 Bus2=31709 phases=3 Linecode=.0225 Length=21.085311 Units=m
New Line.LINE3Cmpd_63 Bus1=3451 Bus2=3694 phases=3 Linecode=2c_.0145 Length=18.83122 Units=m
New Line.LINE3Cmpd_64 Bus1=31185 Bus2=31250 phases=3 Linecode=.0225 Length=8.52435 Units=m
New Line.LINE3Cmpd_65 Bus1=32712 Bus2=32888 phases=3 Linecode=35_SAC_PC Length=16.738937 Units=m
New Line.LINE3Cmpd_66 Bus1=31982 Bus2=32203 phases=3 Linecode=2c_.0225 Length=9.42234 Units=m
New Line.LINE3Cmpd_67 Bus1=3204 Bus2=3395 phases=3 Linecode=2c_.0145 Length=14.52702 Units=m
New Line.LINE3Cmpd_68 Bus1=3595 Bus2=31389 phases=3 Linecode=25_SAC_XC Length=23.324236 Units=m
New Line.LINE3Cmpd_69 Bus1=32189 Bus2=32353 phases=3 Linecode=3c_185_SAC_XC Length=10.82085 Units=m
New Line.LINE3Cmpd_70 Bus1=31647 Bus2=32043 phases=3 Linecode=35_SAC_PC Length=12.176797 Units=m
New Line.LINE3Cmpd_71 Bus1=31061 Bus2=31215 phases=3 Linecode=2c_.0225 Length=10.20332 Units=m
New Line.LINE3Cmpd_72 Bus1=3314 Bus2=3545 phases=3 Linecode=4c_.2_SAC Length=5.77909 Units=m
New Line.LINE3Cmpd_73 Bus1=31647 Bus2=31808 phases=3 Linecode=3c_185_SAC_XC Length=10.7826 Units=m
New Line.LINE3Cmpd_74 Bus1=31427 Bus2=32313 phases=3 Linecode=35_SAC_PC Length=23.17999 Units=m
New Line.LINE3Cmpd_75 Bus1=3121 Bus2=3151 phases=3 Linecode=25_SAC_XC Length=28.727 Units=m
New Line.LINE3Cmpd_76 Bus1=31072 Bus2=31288 phases=3 Linecode=.04 Length=12.7354 Units=m
New Line.LINE3Cmpd_77 Bus1=394 Bus2=3301 phases=3 Linecode=4c_.3_SAC Length=82.267233 Units=m
New Line.LINE3Cmpd_78 Bus1=31586 Bus2=32232 phases=3 Linecode=35_SAC_PC Length=21.381329 Units=m
New Line.LINE3Cmpd_79 Bus1=3838 Bus2=31118 phases=3 Linecode=2c_.0225 Length=9.19919 Units=m
New Line.LINE3Cmpd_80 Bus1=3190 Bus2=3418 phases=3 Linecode=4c_.0145 Length=13.486195 Units=m
New Line.LINE3Cmpd_81 Bus1=31512 Bus2=31686 phases=3 Linecode=2c_.0145 Length=19.52983 Units=m
New Line.LINE3Cmpd_82 Bus1=3748 Bus2=31092 phases=3 Linecode=2c_.0145 Length=13.765134 Units=m
New Line.LINE3Cmpd_83 Bus1=3304 Bus2=3434 phases=3 Linecode=2c_.0145 Length=8.32381 Units=m
New Line.LINE3Cmpd_84 Bus1=31602 Bus2=31819 phases=3 Linecode=2c_.0225 Length=11.68588 Units=m
New Line.LINE3Cmpd_85 Bus1=31969 Bus2=32631 phases=3 Linecode=3c_185_SAC_XC Length=18.632655 Units=m
New Line.LINE3Cmpd_86 Bus1=3557 Bus2=3780 phases=3 Linecode=2c_.0145 Length=13.77343 Units=m
New Line.LINE3Cmpd_87 Bus1=3830 Bus2=31185 phases=3 Linecode=.0225 Length=14.21659 Units=m
New Line.LINE3Cmpd_88 Bus1=3822 Bus2=31181 phases=3 Linecode=.04 Length=16.60873 Units=m
New Line.LINE3Cmpd_89 Bus1=3536 Bus2=3581 phases=3 Linecode=25_SAC_XC Length=12.8692 Units=m
New Line.LINE3Cmpd_90 Bus1=3890 Bus2=3957 phases=3 Linecode=.0225 Length=6.9714 Units=m
New Line.LINE3Cmpd_91 Bus1=3311 Bus2=3426 phases=3 Linecode=5c_.1 Length=14.23359 Units=m
New Line.LINE3Cmpd_92 Bus1=3344 Bus2=3553 phases=3 Linecode=2c_.0225 Length=11.63381 Units=m
New Line.LINE3Cmpd_93 Bus1=3217 Bus2=3356 phases=3 Linecode=2c_.0225 Length=14.477244 Units=m
New Line.LINE3Cmpd_94 Bus1=3121 Bus2=3190 phases=3 Linecode=4c_.2_SAC Length=9.2805 Units=m
New Line.LINE3Cmpd_95 Bus1=31829 Bus2=32435 phases=3 Linecode=35_SAC_PC Length=16.874523 Units=m
New Line.LINE3Cmpd_96 Bus1=3112 Bus2=3194 phases=3 Linecode=2c_.0145 Length=7.445254 Units=m
New Line.LINE3Cmpd_97 Bus1=3498 Bus2=3947 phases=3 Linecode=.0225 Length=12.9752 Units=m
New Line.LINE3Cmpd_98 Bus1=3446 Bus2=3479 phases=3 Linecode=4c_.3_SAC Length=6.2796 Units=m
New Line.LINE3Cmpd_99 Bus1=31323 Bus2=31627 phases=3 Linecode=2c_.0225 Length=10.00273 Units=m
New Line.LINE3Cmpd_100 Bus1=31072 Bus2=31178 phases=3 Linecode=4c_.3_SAC Length=12.3453 Units=m
New Line.LINE3Cmpd_101 Bus1=31178 Bus2=31424 phases=3 Linecode=.0225 Length=16.64178 Units=m
New Line.LINE3Cmpd_102 Bus1=3100 Bus2=3281 phases=3 Linecode=4c_185_SAC_XC Length=23.80326 Units=m
New Line.LINE3Cmpd_103 Bus1=3498 Bus2=3565 phases=3 Linecode=4c_.3_SAC Length=15.6342 Units=m
New Line.LINE3Cmpd_104 Bus1=31213 Bus2=31567 phases=3 Linecode=2c_.04 Length=16.197961 Units=m
New Line.LINE3Cmpd_105 Bus1=31573 Bus2=31957 phases=3 Linecode=5c_.1 Length=33.0905 Units=m
New Line.LINE3Cmpd_106 Bus1=31427 Bus2=31586 phases=3 Linecode=3c_185_SAC_XC Length=13.71193 Units=m
New Line.LINE3Cmpd_107 Bus1=31171 Bus2=31300 phases=3 Linecode=5c_.1 Length=9.234 Units=m
New Line.LINE3Cmpd_108 Bus1=3709 Bus2=3792 phases=3 Linecode=4c_.3_SAC Length=9.0284 Units=m
New Line.LINE3Cmpd_109 Bus1=32631 Bus2=32687 phases=3 Linecode=3c_185_SAC_XC Length=22.3901 Units=m
New Line.LINE3Cmpd_110 Bus1=11 Bus2=322 phases=3 Linecode=4c_.2_SAC Length=9.58689 Units=m
New Line.LINE3Cmpd_111 Bus1=32205 Bus2=32402 phases=3 Linecode=2c_.0225 Length=10.63366 Units=m
New Line.LINE3Cmpd_112 Bus1=31263 Bus2=31743 phases=3 Linecode=2c_.04 Length=27.57181 Units=m
New Line.LINE3Cmpd_113 Bus1=3545 Bus2=31157 phases=3 Linecode=.0225 Length=13.733331 Units=m
New Line.LINE3Cmpd_114 Bus1=31782 Bus2=31911 phases=3 Linecode=2c_.04 Length=13.50364 Units=m
New Line.LINE3Cmpd_115 Bus1=3426 Bus2=3812 phases=3 Linecode=25_SAC_PC Length=8.197195 Units=m
New Line.LINE3Cmpd_116 Bus1=3442 Bus2=3492 phases=3 Linecode=2c_.0225 Length=16.368865 Units=m
New Line.LINE3Cmpd_117 Bus1=371 Bus2=391 phases=3 Linecode=2c_.0145 Length=8.08519 Units=m
New Line.LINE3Cmpd_118 Bus1=31709 Bus2=32059 phases=3 Linecode=.0225 Length=12.79951 Units=m
New Line.LINE3Cmpd_119 Bus1=32181 Bus2=32226 phases=3 Linecode=5c_.1 Length=6.6186 Units=m
New Line.LINE3Cmpd_120 Bus1=31253 Bus2=31534 phases=3 Linecode=.0225 Length=14.08104 Units=m
New Line.LINE3Cmpd_121 Bus1=3746 Bus2=3808 phases=3 Linecode=5c_.1 Length=5.00795 Units=m
New Line.LINE3Cmpd_122 Bus1=32717 Bus2=32884 phases=3 Linecode=35_SAC_PC Length=18.4975 Units=m
New Line.LINE3Cmpd_123 Bus1=3642 Bus2=3692 phases=3 Linecode=2c_.0225 Length=12.9534 Units=m
New Line.LINE3Cmpd_124 Bus1=31262 Bus2=31420 phases=3 Linecode=2c_.04 Length=13.36221 Units=m
New Line.LINE3Cmpd_125 Bus1=3210 Bus2=3261 phases=3 Linecode=2c_.0225 Length=8.32628 Units=m
New Line.LINE3Cmpd_126 Bus1=3745 Bus2=31030 phases=3 Linecode=2c_.0225 Length=8.66724 Units=m
New Line.LINE3Cmpd_127 Bus1=3830 Bus2=31112 phases=3 Linecode=4c_.2_SAC Length=23.56193 Units=m
New Line.LINE3Cmpd_128 Bus1=372 Bus2=394 phases=3 Linecode=4c_.3_SAC Length=16.76471 Units=m
New Line.LINE3Cmpd_129 Bus1=3202 Bus2=3217 phases=3 Linecode=2c_.0225 Length=14.32906 Units=m
New Line.LINE3Cmpd_130 Bus1=3664 Bus2=31227 phases=3 Linecode=2c_.04 Length=16.89586 Units=m
New Line.LINE3Cmpd_131 Bus1=31957 Bus2=32110 phases=3 Linecode=5c_.1 Length=10.24087 Units=m
New Line.LINE3Cmpd_132 Bus1=31754 Bus2=31928 phases=3 Linecode=35_SAC_PC Length=1.129622 Units=m
New Line.LINE3Cmpd_133 Bus1=3418 Bus2=3622 phases=3 Linecode=2c_.0225 Length=16.04894 Units=m
New Line.LINE3Cmpd_134 Bus1=31288 Bus2=31357 phases=3 Linecode=.04 Length=8.2043 Units=m
New Line.LINE3Cmpd_135 Bus1=3822 Bus2=3917 phases=3 Linecode=4c_.3_SAC Length=9.8333 Units=m
New Line.LINE3Cmpd_136 Bus1=3595 Bus2=3642 phases=3 Linecode=5c_.1 Length=6.41847 Units=m
New Line.LINE3Cmpd_137 Bus1=3917 Bus2=31072 phases=3 Linecode=4c_.3_SAC Length=7.28442 Units=m
New Line.LINE3Cmpd_138 Bus1=31624 Bus2=32176 phases=3 Linecode=.0225 Length=16.369176 Units=m
New Line.LINE3Cmpd_139 Bus1=31512 Bus2=31573 phases=3 Linecode=5c_.1 Length=4.76738 Units=m
New Line.LINE3Cmpd_140 Bus1=31138 Bus2=31253 phases=3 Linecode=4c_.2_SAC Length=15.91183 Units=m
New Line.LINE3Cmpd_141 Bus1=31133 Bus2=31183 phases=3 Linecode=.0225 Length=8.1488 Units=m
New Line.LINE3Cmpd_142 Bus1=31371 Bus2=31598 phases=3 Linecode=2c_.0225 Length=11.17768 Units=m
New Line.LINE3Cmpd_143 Bus1=3769 Bus2=3830 phases=3 Linecode=4c_.2_SAC Length=8.0349 Units=m
New Line.LINE3Cmpd_144 Bus1=3253 Bus2=3438 phases=3 Linecode=2c_.02 Length=11.93248 Units=m
New Line.LINE3Cmpd_145 Bus1=31348 Bus2=31395 phases=3 Linecode=5c_.1 Length=10.718 Units=m
New Line.LINE3Cmpd_146 Bus1=31562 Bus2=32023 phases=3 Linecode=.0225 Length=14.646965 Units=m
New Line.LINE3Cmpd_147 Bus1=31418 Bus2=31666 phases=3 Linecode=2c_.0225 Length=9.85098 Units=m
New Line.LINE3Cmpd_148 Bus1=31033 Bus2=31171 phases=3 Linecode=5c_.1 Length=5.47407 Units=m
New Line.LINE3Cmpd_149 Bus1=31593 Bus2=31731 phases=3 Linecode=3c_185_SAC_XC Length=22.01054 Units=m
New Line.LINE3Cmpd_150 Bus1=3545 Bus2=3616 phases=3 Linecode=4c_.2_SAC Length=12.1708 Units=m
New Line.LINE3Cmpd_151 Bus1=32687 Bus2=32717 phases=3 Linecode=3c_185_SAC_XC Length=15.601686 Units=m
New Line.LINE3Cmpd_152 Bus1=31453 Bus2=31559 phases=3 Linecode=.0225 Length=12.547197 Units=m
New Line.LINE3Cmpd_153 Bus1=32666 Bus2=32696 phases=3 Linecode=3c_185_SAC_XC Length=3.22812 Units=m
New Line.LINE3Cmpd_154 Bus1=31227 Bus2=31269 phases=3 Linecode=2c_.04 Length=12.2485 Units=m
New Line.LINE3Cmpd_155 Bus1=32566 Bus2=32643 phases=3 Linecode=35_SAC_PC Length=10.386744 Units=m
New Line.LINE3Cmpd_156 Bus1=3534 Bus2=3749 phases=3 Linecode=2c_.0225 Length=10.185048 Units=m
New Line.LINE3Cmpd_157 Bus1=31381 Bus2=31427 phases=3 Linecode=3c_185_SAC_XC Length=9.3782 Units=m
New Line.LINE3Cmpd_158 Bus1=3664 Bus2=3742 phases=3 Linecode=4c_.2_SAC Length=15.0992 Units=m
New Line.LINE3Cmpd_159 Bus1=31085 Bus2=31167 phases=3 Linecode=.0225 Length=8.84579 Units=m
New Line.LINE3Cmpd_160 Bus1=3240 Bus2=3390 phases=3 Linecode=2c_.0225 Length=14.364778 Units=m
New Line.LINE3Cmpd_161 Bus1=31193 Bus2=31390 phases=3 Linecode=2c_.0225 Length=9.96326 Units=m
New Line.LINE3Cmpd_162 Bus1=31686 Bus2=31885 phases=3 Linecode=2c_.0145 Length=10.22189 Units=m
New Line.LINE3Cmpd_163 Bus1=3332 Bus2=3399 phases=3 Linecode=4c_.3_SAC Length=9.50691 Units=m
New Line.LINE3Cmpd_164 Bus1=31253 Bus2=31316 phases=3 Linecode=4c_.2_SAC Length=12.2122 Units=m
New Line.LINE3Cmpd_165 Bus1=3301 Bus2=3410 phases=3 Linecode=25_SAC_XC Length=15.47059 Units=m
New Line.LINE3Cmpd_166 Bus1=3220 Bus2=3240 phases=3 Linecode=2c_.0225 Length=15.5507 Units=m
New Line.LINE3Cmpd_167 Bus1=3303 Bus2=3416 phases=3 Linecode=4c_185_SAC_XC Length=9.04019 Units=m
New Line.LINE3Cmpd_168 Bus1=3287 Bus2=3310 phases=3 Linecode=2c_.0225 Length=16.65073 Units=m
New Line.LINE3Cmpd_169 Bus1=3524 Bus2=3595 phases=3 Linecode=5c_.1 Length=2.13128 Units=m
New Line.LINE3Cmpd_170 Bus1=3108 Bus2=3121 phases=3 Linecode=4c_.2_SAC Length=4.7399 Units=m
New Line.LINE3Cmpd_171 Bus1=3281 Bus2=3303 phases=3 Linecode=4c_185_SAC_XC Length=5.7737 Units=m
New Line.LINE3Cmpd_172 Bus1=3416 Bus2=3451 phases=3 Linecode=4c_.0145 Length=11.1668 Units=m
New Line.LINE3Cmpd_173 Bus1=394 Bus2=3100 phases=3 Linecode=4c_.2_SAC Length=2.82654 Units=m