New Line.LINE173_1 Bus1=173_1 Bus2=173_2 phases=3 Linecode=3c_300_SAC_XC Length=0.66082 Units=m
New Line.LINE173_2 Bus1=173_2 Bus2=173_3 phases=3 Linecode=3c_300_SAC_XC Length=0.06597 Units=m
New Line.LINE173_3 Bus1=173_3 Bus2=173_4 phases=3 Linecode=3c_300_SAC_XC Length=0.065123 Units=m
New Line.LINE173_4 Bus1=173_4 Bus2=173_5 phases=3 Linecode=3c_300_SAC_XC Length=0.064498 Units=m
New Line.LINE173_5 Bus1=173_5 Bus2=173_6 phases=3 Linecode=3c_300_SAC_XC Length=0.065803 Units=m
New Line.LINE173_6 Bus1=173_6 Bus2=173_7 phases=3 Linecode=3c_300_SAC_XC Length=0.065299 Units=m
New Line.LINE173_7 Bus1=173_7 Bus2=173_8 phases=3 Linecode=3c_300_SAC_XC Length=0.065 Units=m
New Line.LINE173_8 Bus1=173_8 Bus2=173_9 phases=3 Linecode=3c_300_SAC_XC Length=0.065115 Units=m
New Line.LINE173_9 Bus1=173_9 Bus2=173_10 phases=3 Linecode=3c_300_SAC_XC Length=0.066038 Units=m
New Line.LINE173_10 Bus1=173_10 Bus2=173_11 phases=3 Linecode=3c_300_SAC_XC Length=0.45841 Units=m
New Line.LINE173_11 Bus1=173_11 Bus2=173_12 phases=3 Linecode=3c_300_SAC_XC Length=1.0871 Units=m
New Line.LINE173_12 Bus1=173_12 Bus2=173_13 phases=3 Linecode=3c_300_SAC_XC Length=0.90427 Units=m
New Line.LINE173_13 Bus1=173_13 Bus2=173_14 phases=3 Linecode=3c_300_SAC_XC Length=0.17385 Units=m
New Line.LINE173_14 Bus1=173_14 Bus2=173_15 phases=3 Linecode=3c_300_SAC_XC Length=0.17503 Units=m
New Line.LINE173_15 Bus1=173_15 Bus2=173_16 phases=3 Linecode=3c_300_SAC_XC Length=0.17409 Units=m
New Line.LINE173_16 Bus1=173_16 Bus2=173_17 phases=3 Linecode=3c_300_SAC_XC Length=0.17401 Units=m
New Line.LINE173_17 Bus1=173_17 Bus2=173_18 phases=3 Linecode=3c_300_SAC_XC Length=0.17447 Units=m
New Line.LINE173_18 Bus1=173_18 Bus2=173_19 phases=3 Linecode=3c_300_SAC_XC Length=0.17361 Units=m
New Line.LINE173_19 Bus1=173_19 Bus2=173_20 phases=3 Linecode=3c_300_SAC_XC Length=3.8767 Units=m
New Line.LINE173_20 Bus1=173_20 Bus2=173_21 phases=3 Linecode=3c_300_SAC_XC Length=0.36101 Units=m
New Line.LINE173_21 Bus1=173_21 Bus2=173_22 phases=3 Linecode=3c_300_SAC_XC Length=0.23565 Units=m
New Line.LINE173_22 Bus1=173_22 Bus2=173_23 phases=3 Linecode=3c_300_SAC_XC Length=0.26461 Units=m
New Line.LINE173_23 Bus1=173_23 Bus2=173_24 phases=3 Linecode=3c_300_SAC_XC Length=0.28481 Units=m
New Line.LINE173_24 Bus1=173_24 Bus2=173_25 phases=3 Linecode=3c_300_SAC_XC Length=0.54863 Units=m
New Line.LINE173_25 Bus1=173_25 Bus2=173_26 phases=3 Linecode=3c_300_SAC_XC Length=0.28019 Units=m
New Line.LINE173_26 Bus1=173_26 Bus2=173_27 phases=3 Linecode=3c_300_SAC_XC Length=29.9891 Units=m
New Line.LINE173_27 Bus1=173_27 Bus2=173_28 phases=3 Linecode=3c_300_SAC_XC Length=0.76123 Units=m
New Line.LINE173_28 Bus1=173_28 Bus2=173_29 phases=3 Linecode=3c_300_SAC_XC Length=2.72 Units=m
New Line.LINE173_29 Bus1=173_29 Bus2=173_30 phases=3 Linecode=4c_.25 Length=0.62935 Units=m
New Line.LINE173_30 Bus1=173_29 Bus2=173_31 phases=3 Linecode=4c_.25 Length=0.62935 Units=m
New Line.LINE173_31 Bus1=173_30 Bus2=173_32 phases=3 Linecode=4c_.25 Length=13.6295 Units=m
New Line.LINE173_32 Bus1=173_30 Bus2=173_33 phases=3 Linecode=4c_.25 Length=13.6295 Units=m
New Line.LINE173_33 Bus1=173_32 Bus2=173_34 phases=3 Linecode=4c_.25 Length=6.2054 Units=m
New Line.LINE173_34 Bus1=173_32 Bus2=173_35 phases=3 Linecode=4c_.25 Length=6.2054 Units=m
New Line.LINE173_35 Bus1=173_34 Bus2=173_36 phases=3 Linecode=4c_.25 Length=24.2542 Units=m
New Line.LINE173_36 Bus1=173_34 Bus2=173_37 phases=3 Linecode=4c_.25 Length=24.2542 Units=m
New Line.LINE173_37 Bus1=173_36 Bus2=173_38 phases=3 Linecode=4c_.25 Length=3.8026 Units=m
New Line.LINE173_38 Bus1=173_36 Bus2=173_39 phases=3 Linecode=4c_.25 Length=3.8026 Units=m
New Line.LINE173_39 Bus1=173_36 Bus2=173_40 phases=3 Linecode=2c_.04 Length=10.3782 Units=m
New Line.LINE173_40 Bus1=173_38 Bus2=173_41 phases=3 Linecode=4c_.25 Length=13.207 Units=m
New Line.LINE173_41 Bus1=173_40 Bus2=173_42 phases=3 Linecode=2c_.04 Length=1.5214 Units=m
New Line.LINE173_42 Bus1=173_41 Bus2=173_43 phases=3 Linecode=4_XSC Length=0.99378 Units=m
New Line.LINE173_43 Bus1=173_41 Bus2=173_44 phases=3 Linecode=4_XSC Length=0.13159 Units=m
New Line.LINE173_44 Bus1=173_41 Bus2=173_45 phases=3 Linecode=4c_.25 Length=1.2786 Units=m
New Line.LINE173_45 Bus1=173_42 Bus2=173_46 phases=3 Linecode=2c_.04 Length=0.15344 Units=m
New Line.LINE173_46 Bus1=173_44 Bus2=173_47 phases=3 Linecode=4_XSC Length=0.13098 Units=m
New Line.LINE173_47 Bus1=173_45 Bus2=173_48 phases=3 Linecode=4c_.25 Length=10.9007 Units=m
New Line.LINE173_48 Bus1=173_45 Bus2=173_49 phases=3 Linecode=2c_.04 Length=1.0164 Units=m
New Line.LINE173_49 Bus1=173_46 Bus2=173_50 phases=3 Linecode=2c_.04 Length=0.1473 Units=m
New Line.LINE173_50 Bus1=173_47 Bus2=173_51 phases=3 Linecode=4_XSC Length=0.13077 Units=m
New Line.LINE173_51 Bus1=173_48 Bus2=173_52 phases=3 Linecode=4c_.25 Length=22.3647 Units=m
New Line.LINE173_52 Bus1=173_48 Bus2=173_53 phases=3 Linecode=2c_.007 Length=0.21896 Units=m
New Line.LINE173_53 Bus1=173_49 Bus2=173_54 phases=3 Linecode=2c_.04 Length=0.070213 Units=m
New Line.LINE173_54 Bus1=173_50 Bus2=173_55 phases=3 Linecode=2c_.04 Length=0.074216 Units=m
New Line.LINE173_55 Bus1=173_51 Bus2=173_56 phases=3 Linecode=4_XSC Length=0.132 Units=m
New Line.LINE173_56 Bus1=173_52 Bus2=173_57 phases=3 Linecode=4c_.25 Length=10.8425 Units=m
New Line.LINE173_57 Bus1=173_52 Bus2=173_58 phases=3 Linecode=2c_.04 Length=6.0684 Units=m
New Line.LINE173_58 Bus1=173_53 Bus2=173_59 phases=3 Linecode=2c_.007 Length=0.11656 Units=m
New Line.LINE173_59 Bus1=173_54 Bus2=173_60 phases=3 Linecode=2c_.04 Length=0.070215 Units=m
New Line.LINE173_60 Bus1=173_55 Bus2=173_61 phases=3 Linecode=2c_.04 Length=0.13124 Units=m
New Line.LINE173_61 Bus1=173_56 Bus2=173_62 phases=3 Linecode=4_XSC Length=0.073006 Units=m
New Line.LINE173_62 Bus1=173_57 Bus2=173_63 phases=3 Linecode=4c_.25 Length=0.4189 Units=m
New Line.LINE173_63 Bus1=173_58 Bus2=173_64 phases=3 Linecode=2c_.04 Length=1.073 Units=m
New Line.LINE173_64 Bus1=173_58 Bus2=173_65 phases=3 Linecode=2c_.04 Length=6.0299 Units=m
New Line.LINE173_65 Bus1=173_59 Bus2=173_66 phases=3 Linecode=2c_.007 Length=0.13291 Units=m
New Line.LINE173_66 Bus1=173_60 Bus2=173_67 phases=3 Linecode=2c_.04 Length=0.070036 Units=m
New Line.LINE173_67 Bus1=173_61 Bus2=173_68 phases=3 Linecode=2c_.04 Length=0.36713 Units=m
New Line.LINE173_68 Bus1=173_62 Bus2=173_69 phases=3 Linecode=4_XSC Length=0.073981 Units=m
New Line.LINE173_69 Bus1=173_63 Bus2=173_70 phases=3 Linecode=4c_.25 Length=16.3237 Units=m
New Line.LINE173_70 Bus1=173_64 Bus2=173_71 phases=3 Linecode=2c_.04 Length=0.14435 Units=m
New Line.LINE173_71 Bus1=173_65 Bus2=173_72 phases=3 Linecode=2c_.04 Length=0.28379 Units=m
New Line.LINE173_72 Bus1=173_66 Bus2=173_73 phases=3 Linecode=2c_.007 Length=0.35513 Units=m
New Line.LINE173_73 Bus1=173_67 Bus2=173_74 phases=3 Linecode=2c_.04 Length=0.069893 Units=m
New Line.LINE173_74 Bus1=173_68 Bus2=173_75 phases=3 Linecode=2c_.04 Length=3.8064 Units=m
New Line.LINE173_75 Bus1=173_68 Bus2=173_76 phases=3 Linecode=2c_.04 Length=5.4045 Units=m
New Line.LINE173_76 Bus1=173_69 Bus2=173_77 phases=3 Linecode=4_XSC Length=0.074061 Units=m
New Line.LINE173_77 Bus1=173_70 Bus2=173_78 phases=3 Linecode=4c_.25 Length=2.221 Units=m
New Line.LINE173_78 Bus1=173_71 Bus2=173_79 phases=3 Linecode=2c_.04 Length=0.14693 Units=m
New Line.LINE173_79 Bus1=173_72 Bus2=173_80 phases=3 Linecode=2c_.04 Length=0.14405 Units=m
New Line.LINE173_80 Bus1=173_73 Bus2=173_81 phases=3 Linecode=2c_.007 Length=0.137 Units=m
New Line.LINE173_81 Bus1=173_74 Bus2=173_82 phases=3 Linecode=2c_.04 Length=0.070773 Units=m
New Line.LINE173_82 Bus1=173_75 Bus2=173_83 phases=3 Linecode=2c_.04 Length=6.8002 Units=m
New Line.LINE173_83 Bus1=173_77 Bus2=173_84 phases=3 Linecode=4_XSC Length=0.073682 Units=m
New Line.LINE173_84 Bus1=173_78 Bus2=173_85 phases=3 Linecode=4c_.25 Length=3.229 Units=m
New Line.LINE173_85 Bus1=173_78 Bus2=173_86 phases=3 Linecode=2c_.04 Length=5.4102 Units=m
New Line.LINE173_86 Bus1=173_79 Bus2=173_87 phases=3 Linecode=2c_.04 Length=0.19021 Units=m
New Line.LINE173_87 Bus1=173_80 Bus2=173_88 phases=3 Linecode=2c_.04 Length=0.14227 Units=m
New Line.LINE173_88 Bus1=173_81 Bus2=173_89 phases=3 Linecode=2c_.007 Length=0.15253 Units=m
New Line.LINE173_89 Bus1=173_82 Bus2=173_90 phases=3 Linecode=2c_.04 Length=0.070093 Units=m
New Line.LINE173_90 Bus1=173_84 Bus2=173_91 phases=3 Linecode=4_XSC Length=0.074632 Units=m
New Line.LINE173_91 Bus1=173_85 Bus2=173_92 phases=3 Linecode=4c_.25 Length=4.38 Units=m
New Line.LINE173_92 Bus1=173_86 Bus2=173_93 phases=3 Linecode=2c_.04 Length=1.9256 Units=m
New Line.LINE173_93 Bus1=173_87 Bus2=173_94 phases=3 Linecode=2c_.04 Length=0.20006 Units=m
New Line.LINE173_94 Bus1=173_88 Bus2=173_95 phases=3 Linecode=2c_.04 Length=0.94918 Units=m
New Line.LINE173_95 Bus1=173_89 Bus2=173_96 phases=3 Linecode=2c_.007 Length=0.32707 Units=m
New Line.LINE173_96 Bus1=173_90 Bus2=173_97 phases=3 Linecode=2c_.04 Length=0.070114 Units=m
New Line.LINE173_97 Bus1=173_91 Bus2=173_98 phases=3 Linecode=4_XSC Length=0.073824 Units=m
New Line.LINE173_98 Bus1=173_92 Bus2=173_99 phases=3 Linecode=4c_.25 Length=4.9042 Units=m
New Line.LINE173_99 Bus1=173_93 Bus2=173_100 phases=3 Linecode=2c_.04 Length=0.25467 Units=m
New Line.LINE173_100 Bus1=173_94 Bus2=173_101 phases=3 Linecode=2c_.04 Length=0.65215 Units=m
New Line.LINE173_101 Bus1=173_95 Bus2=173_102 phases=3 Linecode=2c_.04 Length=0.6932 Units=m
New Line.LINE173_102 Bus1=173_95 Bus2=173_103 phases=3 Linecode=2c_.04 Length=5.4849 Units=m
New Line.LINE173_103 Bus1=173_96 Bus2=173_104 phases=3 Linecode=2c_.007 Length=0.46854 Units=m
New Line.LINE173_104 Bus1=173_97 Bus2=173_105 phases=3 Linecode=2c_.04 Length=0.070456 Units=m
New Line.LINE173_105 Bus1=173_98 Bus2=173_106 phases=3 Linecode=4_XSC Length=0.073878 Units=m
New Line.LINE173_106 Bus1=173_99 Bus2=173_107 phases=3 Linecode=4c_.25 Length=9.1064 Units=m
New Line.LINE173_107 Bus1=173_99 Bus2=173_108 phases=3 Linecode=2c_.007 Length=0.14741 Units=m
New Line.LINE173_108 Bus1=173_100 Bus2=173_109 phases=3 Linecode=2c_.04 Length=0.31537 Units=m
New Line.LINE173_109 Bus1=173_101 Bus2=173_110 phases=3 Linecode=2c_.04 Length=0.68408 Units=m
New Line.LINE173_110 Bus1=173_101 Bus2=173_111 phases=3 Linecode=2c_.04 Length=5.5758 Units=m
New Line.LINE173_111 Bus1=173_102 Bus2=173_112 phases=3 Linecode=2c_.04 Length=0.17494 Units=m
New Line.LINE173_112 Bus1=173_104 Bus2=173_113 phases=3 Linecode=2c_.007 Length=0.090802 Units=m
New Line.LINE173_113 Bus1=173_105 Bus2=173_114 phases=3 Linecode=2c_.04 Length=0.069922 Units=m
New Line.LINE173_114 Bus1=173_107 Bus2=173_115 phases=3 Linecode=4c_.25 Length=1.6226 Units=m
New Line.LINE173_115 Bus1=173_108 Bus2=173_116 phases=3 Linecode=2c_.007 Length=0.0536 Units=m
New Line.LINE173_116 Bus1=173_109 Bus2=173_117 phases=3 Linecode=2c_.04 Length=0.31088 Units=m
New Line.LINE173_117 Bus1=173_110 Bus2=173_118 phases=3 Linecode=2c_.04 Length=0.21016 Units=m
New Line.LINE173_118 Bus1=173_112 Bus2=173_119 phases=3 Linecode=2c_.04 Length=0.14135 Units=m
New Line.LINE173_119 Bus1=173_113 Bus2=173_120 phases=3 Linecode=2c_.007 Length=0.055154 Units=m
New Line.LINE173_120 Bus1=173_114 Bus2=173_121 phases=3 Linecode=2c_.04 Length=0.22265 Units=m
New Line.LINE173_121 Bus1=173_115 Bus2=173_122 phases=3 Linecode=4c_.25 Length=1.1007 Units=m
New Line.LINE173_122 Bus1=173_115 Bus2=173_123 phases=3 Linecode=4c_.25 Length=0.18047 Units=m
New Line.LINE173_123 Bus1=173_116 Bus2=173_124 phases=3 Linecode=2c_.007 Length=0.053141 Units=m
New Line.LINE173_124 Bus1=173_117 Bus2=173_125 phases=3 Linecode=2c_.04 Length=0.24948 Units=m
New Line.LINE173_125 Bus1=173_118 Bus2=173_126 phases=3 Linecode=2c_.04 Length=0.1099 Units=m
New Line.LINE173_126 Bus1=173_119 Bus2=173_127 phases=3 Linecode=2c_.04 Length=0.12349 Units=m
New Line.LINE173_127 Bus1=173_120 Bus2=173_128 phases=3 Linecode=2c_.007 Length=0.054378 Units=m
New Line.LINE173_128 Bus1=173_121 Bus2=173_129 phases=3 Linecode=2c_.04 Length=0.077826 Units=m
New Line.LINE173_129 Bus1=173_122 Bus2=173_130 phases=3 Linecode=4c_.25 Length=7.7196 Units=m
New Line.LINE173_130 Bus1=173_123 Bus2=173_131 phases=3 Linecode=4c_.25 Length=0.10966 Units=m
New Line.LINE173_131 Bus1=173_124 Bus2=173_132 phases=3 Linecode=2c_.007 Length=0.053712 Units=m
New Line.LINE173_132 Bus1=173_125 Bus2=173_133 phases=3 Linecode=2c_.04 Length=0.11927 Units=m
New Line.LINE173_133 Bus1=173_126 Bus2=173_134 phases=3 Linecode=2c_.04 Length=0.12306 Units=m
New Line.LINE173_134 Bus1=173_127 Bus2=173_135 phases=3 Linecode=2c_.04 Length=0.13513 Units=m
New Line.LINE173_135 Bus1=173_128 Bus2=173_136 phases=3 Linecode=2c_.007 Length=0.055172 Units=m
New Line.LINE173_136 Bus1=173_129 Bus2=173_137 phases=3 Linecode=2c_.04 Length=0.078243 Units=m
New Line.LINE173_137 Bus1=173_130 Bus2=173_138 phases=3 Linecode=4c_.25 Length=15.1484 Units=m
New Line.LINE173_138 Bus1=173_131 Bus2=173_139 phases=3 Linecode=4c_.25 Length=0.1337 Units=m
New Line.LINE173_139 Bus1=173_132 Bus2=173_140 phases=3 Linecode=2c_.007 Length=0.053906 Units=m
New Line.LINE173_140 Bus1=173_133 Bus2=173_141 phases=3 Linecode=2c_.04 Length=0.16614 Units=m
New Line.LINE173_141 Bus1=173_134 Bus2=173_142 phases=3 Linecode=2c_.04 Length=0.38684 Units=m
New Line.LINE173_142 Bus1=173_135 Bus2=173_143 phases=3 Linecode=2c_.04 Length=0.20917 Units=m
New Line.LINE173_143 Bus1=173_136 Bus2=173_144 phases=3 Linecode=2c_.007 Length=0.054999 Units=m
New Line.LINE173_144 Bus1=173_137 Bus2=173_145 phases=3 Linecode=2c_.04 Length=0.078746 Units=m
New Line.LINE173_145 Bus1=173_138 Bus2=173_146 phases=3 Linecode=4c_.25 Length=13.0823 Units=m
New Line.LINE173_146 Bus1=173_138 Bus2=173_147 phases=3 Linecode=4c_.25 Length=13.0812 Units=m
New Line.LINE173_147 Bus1=173_138 Bus2=173_148 phases=3 Linecode=4c_.25 Length=0.16996 Units=m
New Line.LINE173_148 Bus1=173_139 Bus2=173_149 phases=3 Linecode=4c_.25 Length=0.099866 Units=m
New Line.LINE173_149 Bus1=173_140 Bus2=173_150 phases=3 Linecode=2c_.007 Length=0.053265 Units=m
New Line.LINE173_150 Bus1=173_141 Bus2=173_151 phases=3 Linecode=2c_.04 Length=0.32671 Units=m
New Line.LINE173_151 Bus1=173_142 Bus2=173_152 phases=3 Linecode=2c_.04 Length=4.5289 Units=m
New Line.LINE173_152 Bus1=173_143 Bus2=173_153 phases=3 Linecode=2c_.04 Length=4.1593 Units=m
New Line.LINE173_153 Bus1=173_144 Bus2=173_154 phases=3 Linecode=2c_.007 Length=0.054563 Units=m
New Line.LINE173_154 Bus1=173_145 Bus2=173_155 phases=3 Linecode=2c_.04 Length=0.077898 Units=m
New Line.LINE173_155 Bus1=173_146 Bus2=173_156 phases=3 Linecode=4c_.25 Length=9.5022 Units=m
New Line.LINE173_156 Bus1=173_147 Bus2=173_157 phases=3 Linecode=4c_.25 Length=9.3995 Units=m
New Line.LINE173_157 Bus1=173_148 Bus2=173_158 phases=3 Linecode=4c_.25 Length=14.9773 Units=m
New Line.LINE173_158 Bus1=173_148 Bus2=173_159 phases=3 Linecode=4c_.12 Length=2.1639 Units=m
New Line.LINE173_159 Bus1=173_149 Bus2=173_160 phases=3 Linecode=4c_.25 Length=0.1242 Units=m
New Line.LINE173_160 Bus1=173_150 Bus2=173_161 phases=3 Linecode=2c_.007 Length=0.053338 Units=m
New Line.LINE173_161 Bus1=173_151 Bus2=173_162 phases=3 Linecode=2c_.04 Length=3.2941 Units=m
New Line.LINE173_162 Bus1=173_151 Bus2=173_163 phases=3 Linecode=2c_.04 Length=5.4563 Units=m
New Line.LINE173_163 Bus1=173_152 Bus2=173_164 phases=3 Linecode=2c_.04 Length=0.1676 Units=m
New Line.LINE173_164 Bus1=173_153 Bus2=173_165 phases=3 Linecode=2c_.04 Length=0.14525 Units=m
New Line.LINE173_165 Bus1=173_154 Bus2=173_166 phases=3 Linecode=2c_.007 Length=0.054818 Units=m
New Line.LINE173_166 Bus1=173_155 Bus2=173_167 phases=3 Linecode=2c_.04 Length=0.078746 Units=m
New Line.LINE173_167 Bus1=173_156 Bus2=173_168 phases=3 Linecode=4c_.25 Length=2.6906 Units=m
New Line.LINE173_168 Bus1=173_157 Bus2=173_169 phases=3 Linecode=4c_.25 Length=2.7909 Units=m
New Line.LINE173_169 Bus1=173_158 Bus2=173_170 phases=3 Linecode=4c_.25 Length=7.0382 Units=m
New Line.LINE173_170 Bus1=173_159 Bus2=173_171 phases=3 Linecode=4c_.12 Length=1.2559 Units=m
New Line.LINE173_171 Bus1=173_161 Bus2=173_172 phases=3 Linecode=2c_.007 Length=0.05376 Units=m
New Line.LINE173_172 Bus1=173_162 Bus2=173_173 phases=3 Linecode=2c_.04 Length=5.6523 Units=m
New Line.LINE173_173 Bus1=173_164 Bus2=173_174 phases=3 Linecode=2c_.04 Length=0.11643 Units=m
New Line.LINE173_174 Bus1=173_165 Bus2=173_175 phases=3 Linecode=2c_.04 Length=0.12969 Units=m
New Line.LINE173_175 Bus1=173_166 Bus2=173_176 phases=3 Linecode=2c_.007 Length=0.054231 Units=m
New Line.LINE173_176 Bus1=173_167 Bus2=173_177 phases=3 Linecode=2c_.04 Length=0.078517 Units=m
New Line.LINE173_177 Bus1=173_168 Bus2=173_178 phases=3 Linecode=4c_.25 Length=1.2557 Units=m
New Line.LINE173_178 Bus1=173_169 Bus2=173_179 phases=3 Linecode=4c_.25 Length=1.2781 Units=m
New Line.LINE173_179 Bus1=173_170 Bus2=173_180 phases=3 Linecode=4c_.25 Length=1.0729 Units=m
New Line.LINE173_180 Bus1=173_170 Bus2=173_181 phases=3 Linecode=4c_.25 Length=0.15692 Units=m
New Line.LINE173_181 Bus1=173_171 Bus2=173_182 phases=3 Linecode=4c_.12 Length=1.124 Units=m
New Line.LINE173_182 Bus1=173_172 Bus2=173_183 phases=3 Linecode=2c_.007 Length=0.29517 Units=m
New Line.LINE173_183 Bus1=173_174 Bus2=173_184 phases=3 Linecode=2c_.04 Length=0.063953 Units=m
New Line.LINE173_184 Bus1=173_175 Bus2=173_185 phases=3 Linecode=2c_.04 Length=0.18001 Units=m
New Line.LINE173_185 Bus1=173_176 Bus2=173_186 phases=3 Linecode=2c_.007 Length=0.054231 Units=m
New Line.LINE173_186 Bus1=173_177 Bus2=173_187 phases=3 Linecode=2c_.04 Length=0.077319 Units=m
New Line.LINE173_187 Bus1=173_181 Bus2=173_188 phases=3 Linecode=4c_.25 Length=0.11265 Units=m
New Line.LINE173_188 Bus1=173_182 Bus2=173_189 phases=3 Linecode=4c_.12 Length=1.088 Units=m
New Line.LINE173_189 Bus1=173_183 Bus2=173_190 phases=3 Linecode=2c_.007 Length=0.056303 Units=m
New Line.LINE173_190 Bus1=173_184 Bus2=173_191 phases=3 Linecode=2c_.04 Length=0.11764 Units=m
New Line.LINE173_191 Bus1=173_185 Bus2=173_192 phases=3 Linecode=2c_.04 Length=1.1289 Units=m
New Line.LINE173_192 Bus1=173_186 Bus2=173_193 phases=3 Linecode=2c_.007 Length=0.055082 Units=m
New Line.LINE173_193 Bus1=173_187 Bus2=173_194 phases=3 Linecode=2c_.04 Length=0.078849 Units=m
New Line.LINE173_194 Bus1=173_188 Bus2=173_195 phases=3 Linecode=4c_.25 Length=0.12126 Units=m
New Line.LINE173_195 Bus1=173_189 Bus2=173_196 phases=3 Linecode=4c_.12 Length=0.90741 Units=m
New Line.LINE173_196 Bus1=173_190 Bus2=173_197 phases=3 Linecode=2c_.007 Length=0.056436 Units=m
New Line.LINE173_197 Bus1=173_191 Bus2=173_198 phases=3 Linecode=2c_.04 Length=0.94555 Units=m
New Line.LINE173_198 Bus1=173_192 Bus2=173_199 phases=3 Linecode=2c_.04 Length=1.1052 Units=m
New Line.LINE173_199 Bus1=173_192 Bus2=173_200 phases=3 Linecode=2c_.04 Length=4.7969 Units=m
New Line.LINE173_200 Bus1=173_193 Bus2=173_201 phases=3 Linecode=2c_.007 Length=0.8515 Units=m
New Line.LINE173_201 Bus1=173_194 Bus2=173_202 phases=3 Linecode=2c_.04 Length=9.5798 Units=m
New Line.LINE173_202 Bus1=173_195 Bus2=173_203 phases=3 Linecode=4c_.25 Length=0.15246 Units=m
New Line.LINE173_203 Bus1=173_196 Bus2=173_204 phases=3 Linecode=4c_.12 Length=1.0323 Units=m
New Line.LINE173_204 Bus1=173_197 Bus2=173_205 phases=3 Linecode=2c_.007 Length=0.055972 Units=m
New Line.LINE173_205 Bus1=173_198 Bus2=173_206 phases=3 Linecode=2c_.04 Length=0.87133 Units=m
New Line.LINE173_206 Bus1=173_198 Bus2=173_207 phases=3 Linecode=2c_.04 Length=5.2358 Units=m
New Line.LINE173_207 Bus1=173_199 Bus2=173_208 phases=3 Linecode=2c_.04 Length=0.16981 Units=m
New Line.LINE173_208 Bus1=173_202 Bus2=173_209 phases=3 Linecode=2c_.04 Length=0.069319 Units=m
New Line.LINE173_209 Bus1=173_203 Bus2=173_210 phases=3 Linecode=4c_.25 Length=0.96865 Units=m
New Line.LINE173_210 Bus1=173_204 Bus2=173_211 phases=3 Linecode=4c_.12 Length=0.91725 Units=m
New Line.LINE173_211 Bus1=173_205 Bus2=173_212 phases=3 Linecode=2c_.007 Length=0.056223 Units=m
New Line.LINE173_212 Bus1=173_206 Bus2=173_213 phases=3 Linecode=2c_.04 Length=0.13956 Units=m
New Line.LINE173_213 Bus1=173_208 Bus2=173_214 phases=3 Linecode=2c_.04 Length=0.13375 Units=m
New Line.LINE173_214 Bus1=173_209 Bus2=173_215 phases=3 Linecode=2c_.04 Length=0.069405 Units=m
New Line.LINE173_215 Bus1=173_210 Bus2=173_216 phases=3 Linecode=4c_.25 Length=0.15795 Units=m
New Line.LINE173_216 Bus1=173_211 Bus2=173_217 phases=3 Linecode=4c_.12 Length=1.4275 Units=m
New Line.LINE173_217 Bus1=173_212 Bus2=173_218 phases=3 Linecode=2c_.007 Length=0.056356 Units=m
New Line.LINE173_218 Bus1=173_213 Bus2=173_219 phases=3 Linecode=2c_.04 Length=0.12238 Units=m
New Line.LINE173_219 Bus1=173_214 Bus2=173_220 phases=3 Linecode=2c_.04 Length=0.20597 Units=m
New Line.LINE173_220 Bus1=173_215 Bus2=173_221 phases=3 Linecode=2c_.04 Length=0.068623 Units=m
New Line.LINE173_221 Bus1=173_216 Bus2=173_222 phases=3 Linecode=4c_.25 Length=0.12895 Units=m
New Line.LINE173_222 Bus1=173_217 Bus2=173_223 phases=3 Linecode=4c_.12 Length=1.9593 Units=m
New Line.LINE173_223 Bus1=173_218 Bus2=173_224 phases=3 Linecode=2c_.007 Length=0.05632 Units=m
New Line.LINE173_224 Bus1=173_219 Bus2=173_225 phases=3 Linecode=2c_.04 Length=0.19389 Units=m
New Line.LINE173_225 Bus1=173_220 Bus2=173_226 phases=3 Linecode=2c_.04 Length=0.22412 Units=m
New Line.LINE173_226 Bus1=173_221 Bus2=173_227 phases=3 Linecode=2c_.04 Length=0.069892 Units=m
New Line.LINE173_227 Bus1=173_222 Bus2=173_228 phases=3 Linecode=4c_.25 Length=0.29382 Units=m
New Line.LINE173_228 Bus1=173_224 Bus2=173_229 phases=3 Linecode=2c_.007 Length=0.056223 Units=m
New Line.LINE173_229 Bus1=173_225 Bus2=173_230 phases=3 Linecode=2c_.04 Length=3.5848 Units=m
New Line.LINE173_230 Bus1=173_226 Bus2=173_231 phases=3 Linecode=2c_.04 Length=3.0143 Units=m
New Line.LINE173_231 Bus1=173_227 Bus2=173_232 phases=3 Linecode=2c_.04 Length=0.069857 Units=m
New Line.LINE173_232 Bus1=173_228 Bus2=173_233 phases=3 Linecode=4c_.25 Length=0.66757 Units=m
New Line.LINE173_233 Bus1=173_229 Bus2=173_234 phases=3 Linecode=2c_.007 Length=0.056144 Units=m
New Line.LINE173_234 Bus1=173_230 Bus2=173_235 phases=3 Linecode=2c_.04 Length=0.222 Units=m
New Line.LINE173_235 Bus1=173_231 Bus2=173_236 phases=3 Linecode=2c_.04 Length=0.31723 Units=m
New Line.LINE173_236 Bus1=173_232 Bus2=173_237 phases=3 Linecode=2c_.04 Length=0.068884 Units=m
New Line.LINE173_237 Bus1=173_233 Bus2=173_238 phases=3 Linecode=4c_.25 Length=1.5175 Units=m
New Line.LINE173_238 Bus1=173_234 Bus2=173_239 phases=3 Linecode=2c_.007 Length=0.05632 Units=m
New Line.LINE173_239 Bus1=173_235 Bus2=173_240 phases=3 Linecode=2c_.04 Length=0.2022 Units=m
New Line.LINE173_240 Bus1=173_236 Bus2=173_241 phases=3 Linecode=2c_.04 Length=0.24466 Units=m
New Line.LINE173_241 Bus1=173_237 Bus2=173_242 phases=3 Linecode=2c_.04 Length=0.069181 Units=m
New Line.LINE173_242 Bus1=173_238 Bus2=173_243 phases=3 Linecode=4c_.25 Length=0.49104 Units=m
New Line.LINE173_243 Bus1=173_239 Bus2=173_244 phases=3 Linecode=2c_.007 Length=0.1209 Units=m
New Line.LINE173_244 Bus1=173_240 Bus2=173_245 phases=3 Linecode=2c_.04 Length=0.17981 Units=m
New Line.LINE173_245 Bus1=173_241 Bus2=173_246 phases=3 Linecode=2c_.04 Length=4.0139 Units=m
New Line.LINE173_246 Bus1=173_242 Bus2=173_247 phases=3 Linecode=2c_.04 Length=0.069462 Units=m
New Line.LINE173_247 Bus1=173_243 Bus2=173_248 phases=3 Linecode=4c_.25 Length=1 Units=m
New Line.LINE173_248 Bus1=173_244 Bus2=173_249 phases=3 Linecode=4_XSC Length=0.95309 Units=m
New Line.LINE173_249 Bus1=173_245 Bus2=173_250 phases=3 Linecode=2c_.04 Length=0.19815 Units=m
New Line.LINE173_250 Bus1=173_246 Bus2=173_251 phases=3 Linecode=2c_.04 Length=0.2719 Units=m
New Line.LINE173_251 Bus1=173_247 Bus2=173_252 phases=3 Linecode=2c_.04 Length=1.6829 Units=m
New Line.LINE173_252 Bus1=173_248 Bus2=173_253 phases=3 Linecode=4c_.25 Length=0.28429 Units=m
New Line.LINE173_253 Bus1=173_249 Bus2=173_254 phases=3 Linecode=4_XSC Length=0.076922 Units=m
New Line.LINE173_254 Bus1=173_250 Bus2=173_255 phases=3 Linecode=2c_.04 Length=2.8657 Units=m
New Line.LINE173_255 Bus1=173_251 Bus2=173_256 phases=3 Linecode=2c_.04 Length=0.27914 Units=m
New Line.LINE173_256 Bus1=173_252 Bus2=173_257 phases=3 Linecode=2c_.04 Length=0.49812 Units=m
New Line.LINE173_257 Bus1=173_252 Bus2=173_258 phases=3 Linecode=2c_.04 Length=6.7145 Units=m
New Line.LINE173_258 Bus1=173_253 Bus2=173_259 phases=3 Linecode=4c_.25 Length=0.99343 Units=m
New Line.LINE173_259 Bus1=173_254 Bus2=173_260 phases=3 Linecode=4_XSC Length=0.077318 Units=m
New Line.LINE173_260 Bus1=173_255 Bus2=173_261 phases=3 Linecode=2c_.04 Length=0.25882 Units=m
New Line.LINE173_261 Bus1=173_256 Bus2=173_262 phases=3 Linecode=2c_.04 Length=6.462 Units=m
New Line.LINE173_262 Bus1=173_257 Bus2=173_263 phases=3 Linecode=2c_.04 Length=3.7487 Units=m
New Line.LINE173_263 Bus1=173_259 Bus2=173_264 phases=3 Linecode=4c_.25 Length=1.5334 Units=m
New Line.LINE173_264 Bus1=173_260 Bus2=173_265 phases=3 Linecode=4_XSC Length=0.07642 Units=m
New Line.LINE173_265 Bus1=173_261 Bus2=173_266 phases=3 Linecode=2c_.04 Length=0.18398 Units=m
New Line.LINE173_266 Bus1=173_263 Bus2=173_267 phases=3 Linecode=2c_.04 Length=6.3188 Units=m
New Line.LINE173_267 Bus1=173_264 Bus2=173_268 phases=3 Linecode=4c_.25 Length=1.0887 Units=m
New Line.LINE173_268 Bus1=173_265 Bus2=173_269 phases=3 Linecode=4_XSC Length=0.076922 Units=m
New Line.LINE173_269 Bus1=173_266 Bus2=173_270 phases=3 Linecode=2c_.04 Length=0.42367 Units=m
New Line.LINE173_270 Bus1=173_268 Bus2=173_271 phases=3 Linecode=4c_.25 Length=1.2438 Units=m
New Line.LINE173_271 Bus1=173_269 Bus2=173_272 phases=3 Linecode=4_XSC Length=0.076479 Units=m
New Line.LINE173_272 Bus1=173_270 Bus2=173_273 phases=3 Linecode=2c_.04 Length=5.1311 Units=m
New Line.LINE173_273 Bus1=173_271 Bus2=173_274 phases=3 Linecode=4c_.25 Length=1.3445 Units=m
New Line.LINE173_274 Bus1=173_272 Bus2=173_275 phases=3 Linecode=4_XSC Length=0.077006 Units=m
New Line.LINE173_275 Bus1=173_274 Bus2=173_276 phases=3 Linecode=4c_.25 Length=3.834 Units=m
New Line.LINE173_276 Bus1=173_275 Bus2=173_277 phases=3 Linecode=4_XSC Length=0.077156 Units=m
New Line.LINE173_277 Bus1=173_276 Bus2=173_278 phases=3 Linecode=4c_.25 Length=0.064399 Units=m
New Line.LINE173_278 Bus1=173_276 Bus2=173_279 phases=3 Linecode=4c_.25 Length=1.1107 Units=m
New Line.LINE173_279 Bus1=173_277 Bus2=173_280 phases=3 Linecode=4_XSC Length=1.0083 Units=m
New Line.LINE173_280 Bus1=173_278 Bus2=173_281 phases=3 Linecode=4c_.25 Length=0.071701 Units=m
New Line.LINE173_281 Bus1=173_279 Bus2=173_282 phases=3 Linecode=4c_.25 Length=2.2769 Units=m
New Line.LINE173_282 Bus1=173_279 Bus2=173_283 phases=3 Linecode=2c_.04 Length=6.0924 Units=m
New Line.LINE173_283 Bus1=173_281 Bus2=173_284 phases=3 Linecode=4c_.25 Length=0.071063 Units=m
New Line.LINE173_284 Bus1=173_282 Bus2=173_285 phases=3 Linecode=4c_.25 Length=6.0674 Units=m
New Line.LINE173_285 Bus1=173_283 Bus2=173_286 phases=3 Linecode=2c_.04 Length=1.9595 Units=m
New Line.LINE173_286 Bus1=173_284 Bus2=173_287 phases=3 Linecode=4c_.25 Length=0.07207 Units=m
New Line.LINE173_287 Bus1=173_285 Bus2=173_288 phases=3 Linecode=4c_.25 Length=5.7075 Units=m
New Line.LINE173_288 Bus1=173_286 Bus2=173_289 phases=3 Linecode=2c_.04 Length=1.2793 Units=m
New Line.LINE173_289 Bus1=173_287 Bus2=173_290 phases=3 Linecode=4c_.25 Length=0.070838 Units=m
New Line.LINE173_290 Bus1=173_288 Bus2=173_291 phases=3 Linecode=4c_.25 Length=5.4318 Units=m
New Line.LINE173_291 Bus1=173_288 Bus2=173_292 phases=3 Linecode=2c_.04 Length=5.912 Units=m
New Line.LINE173_292 Bus1=173_289 Bus2=173_293 phases=3 Linecode=2c_.04 Length=0.53579 Units=m
New Line.LINE173_293 Bus1=173_290 Bus2=173_294 phases=3 Linecode=4c_.25 Length=0.18373 Units=m
New Line.LINE173_294 Bus1=173_291 Bus2=173_295 phases=3 Linecode=4c_.25 Length=11.8038 Units=m
New Line.LINE173_295 Bus1=173_292 Bus2=173_296 phases=3 Linecode=2c_.04 Length=0.64929 Units=m
New Line.LINE173_296 Bus1=173_292 Bus2=173_297 phases=3 Linecode=2c_.04 Length=4.5102 Units=m
New Line.LINE173_297 Bus1=173_293 Bus2=173_298 phases=3 Linecode=2c_.04 Length=0.58259 Units=m
New Line.LINE173_298 Bus1=173_294 Bus2=173_299 phases=3 Linecode=4c_.25 Length=0.18407 Units=m
New Line.LINE173_299 Bus1=173_295 Bus2=173_300 phases=3 Linecode=4c_.25 Length=5.4476 Units=m
New Line.LINE173_300 Bus1=173_296 Bus2=173_301 phases=3 Linecode=2c_.04 Length=0.25 Units=m
New Line.LINE173_301 Bus1=173_298 Bus2=173_302 phases=3 Linecode=2c_.04 Length=0.65723 Units=m
New Line.LINE173_302 Bus1=173_299 Bus2=173_303 phases=3 Linecode=4c_.25 Length=0.18298 Units=m
New Line.LINE173_303 Bus1=173_300 Bus2=173_304 phases=3 Linecode=4c_.25 Length=4.1861 Units=m
New Line.LINE173_304 Bus1=173_300 Bus2=173_305 phases=3 Linecode=2c_.04 Length=9.3671 Units=m
New Line.LINE173_305 Bus1=173_301 Bus2=173_306 phases=3 Linecode=2c_.04 Length=0.19007 Units=m
New Line.LINE173_306 Bus1=173_302 Bus2=173_307 phases=3 Linecode=2c_.04 Length=1.3979 Units=m
New Line.LINE173_307 Bus1=173_302 Bus2=173_308 phases=3 Linecode=2c_.04 Length=5.127 Units=m
New Line.LINE173_308 Bus1=173_302 Bus2=173_309 phases=3 Linecode=2c_.04 Length=5.127 Units=m
New Line.LINE173_309 Bus1=173_303 Bus2=173_310 phases=3 Linecode=4c_.25 Length=0.1835 Units=m
New Line.LINE173_310 Bus1=173_304 Bus2=173_311 phases=3 Linecode=4c_.25 Length=5.3543 Units=m
New Line.LINE173_311 Bus1=173_305 Bus2=173_312 phases=3 Linecode=2c_.04 Length=0.24361 Units=m
New Line.LINE173_312 Bus1=173_306 Bus2=173_313 phases=3 Linecode=2c_.04 Length=0.12259 Units=m
New Line.LINE173_313 Bus1=173_307 Bus2=173_314 phases=3 Linecode=2c_.04 Length=0.19383 Units=m
New Line.LINE173_314 Bus1=173_310 Bus2=173_315 phases=3 Linecode=4c_.25 Length=4.3843 Units=m
New Line.LINE173_315 Bus1=173_311 Bus2=173_316 phases=3 Linecode=4c_.25 Length=5.1085 Units=m
New Line.LINE173_316 Bus1=173_312 Bus2=173_317 phases=3 Linecode=2c_.04 Length=0.21149 Units=m
New Line.LINE173_317 Bus1=173_313 Bus2=173_318 phases=3 Linecode=2c_.04 Length=7.25 Units=m