New Line.LINE11 Bus1=11 Bus2=12 phases=3 Linecode=4c_.25 Length=0.98668 Units=m
New Line.LINE12 Bus1=12 Bus2=13 phases=3 Linecode=4c_.25 Length=0.085494 Units=m
New Line.LINE13 Bus1=13 Bus2=14 phases=3 Linecode=4c_.25 Length=0.1414 Units=m
New Line.LINE14 Bus1=14 Bus2=15 phases=3 Linecode=4c_.25 Length=0.1009 Units=m
New Line.LINE15 Bus1=15 Bus2=16 phases=3 Linecode=4c_.25 Length=0.097062 Units=m
New Line.LINE16 Bus1=16 Bus2=17 phases=3 Linecode=4c_.25 Length=0.13025 Units=m
New Line.LINE17 Bus1=17 Bus2=18 phases=3 Linecode=4c_.25 Length=0.129 Units=m
New Line.LINE18 Bus1=18 Bus2=19 phases=3 Linecode=4c_.25 Length=0.10502 Units=m
New Line.LINE19 Bus1=19 Bus2=110 phases=3 Linecode=4c_.25 Length=0.53928 Units=m
New Line.LINE110 Bus1=110 Bus2=111 phases=3 Linecode=4c_.25 Length=0.16256 Units=m
New Line.LINE111 Bus1=111 Bus2=112 phases=3 Linecode=4c_.25 Length=0.164 Units=m
New Line.LINE112 Bus1=112 Bus2=113 phases=3 Linecode=4c_.25 Length=0.15146 Units=m
New Line.LINE113 Bus1=113 Bus2=114 phases=3 Linecode=4c_.25 Length=0.15033 Units=m
New Line.LINE114 Bus1=114 Bus2=115 phases=3 Linecode=4c_.25 Length=0.101 Units=m
New Line.LINE115 Bus1=115 Bus2=116 phases=3 Linecode=4c_.25 Length=0.20304 Units=m
New Line.LINE116 Bus1=116 Bus2=117 phases=3 Linecode=4c_.25 Length=0.28936 Units=m
New Line.LINE117 Bus1=117 Bus2=118 phases=3 Linecode=4c_.25 Length=0.37381 Units=m
New Line.LINE118 Bus1=118 Bus2=119 phases=3 Linecode=4c_.25 Length=0.4315 Units=m
New Line.LINE119 Bus1=119 Bus2=120 phases=3 Linecode=4c_.25 Length=0.38908 Units=m
New Line.LINE120 Bus1=120 Bus2=121 phases=3 Linecode=4c_.25 Length=0.42339 Units=m
New Line.LINE121 Bus1=121 Bus2=122 phases=3 Linecode=4c_.25 Length=0.36872 Units=m
New Line.LINE122 Bus1=122 Bus2=123 phases=3 Linecode=4c_.25 Length=0.32704 Units=m
New Line.LINE123 Bus1=123 Bus2=124 phases=3 Linecode=4c_.25 Length=0.41008 Units=m
New Line.LINE124 Bus1=124 Bus2=125 phases=3 Linecode=4c_.25 Length=0.40317 Units=m
New Line.LINE125 Bus1=125 Bus2=126 phases=3 Linecode=4c_.25 Length=0.44942 Units=m
New Line.LINE126 Bus1=126 Bus2=127 phases=3 Linecode=4c_.25 Length=0.2329 Units=m
New Line.LINE127 Bus1=127 Bus2=128 phases=3 Linecode=4c_.25 Length=0.3891 Units=m
New Line.LINE128 Bus1=128 Bus2=129 phases=3 Linecode=3c_240_SAC_XC Length=0.57277 Units=m
New Line.LINE129 Bus1=129 Bus2=130 phases=3 Linecode=3c_240_SAC_XC Length=6.5824 Units=m
New Line.LINE130 Bus1=130 Bus2=131 phases=3 Linecode=3c_240_SAC_XC Length=1.5394 Units=m
New Line.LINE131 Bus1=131 Bus2=132 phases=3 Linecode=3c_240_SAC_XC Length=0.30305 Units=m
New Line.LINE132 Bus1=132 Bus2=133 phases=3 Linecode=3c_240_SAC_XC Length=0.36586 Units=m
New Line.LINE133 Bus1=133 Bus2=134 phases=3 Linecode=3c_240_SAC_XC Length=0.46683 Units=m
New Line.LINE134 Bus1=134 Bus2=135 phases=3 Linecode=3c_240_SAC_XC Length=0.49314 Units=m
New Line.LINE135 Bus1=135 Bus2=136 phases=3 Linecode=3c_240_SAC_XC Length=1.287 Units=m
New Line.LINE136 Bus1=136 Bus2=137 phases=3 Linecode=3c_240_SAC_XC Length=0.67711 Units=m
New Line.LINE137 Bus1=137 Bus2=138 phases=3 Linecode=3c_240_SAC_XC Length=0.19671 Units=m
New Line.LINE138 Bus1=138 Bus2=139 phases=3 Linecode=3c_240_SAC_XC Length=0.11802 Units=m
New Line.LINE139 Bus1=139 Bus2=140 phases=3 Linecode=3c_240_SAC_XC Length=0.085999 Units=m
New Line.LINE140 Bus1=140 Bus2=141 phases=3 Linecode=3c_240_SAC_XC Length=0.072835 Units=m
New Line.LINE141 Bus1=141 Bus2=142 phases=3 Linecode=3c_240_SAC_XC Length=0.063152 Units=m
New Line.LINE142 Bus1=142 Bus2=143 phases=3 Linecode=3c_240_SAC_XC Length=0.067778 Units=m
New Line.LINE143 Bus1=143 Bus2=144 phases=3 Linecode=3c_240_SAC_XC Length=0.074632 Units=m
New Line.LINE144 Bus1=144 Bus2=145 phases=3 Linecode=3c_240_SAC_XC Length=0.075689 Units=m
New Line.LINE145 Bus1=145 Bus2=146 phases=3 Linecode=3c_240_SAC_XC Length=0.15166 Units=m
New Line.LINE146 Bus1=146 Bus2=147 phases=3 Linecode=3c_300_SAC_XC Length=0.12107 Units=m
New Line.LINE149 Bus1=147 Bus2=150 phases=3 Linecode=3c_300_SAC_XC Length=0.075181 Units=m
New Line.LINE157 Bus1=150 Bus2=158 phases=3 Linecode=3c_300_SAC_XC Length=0.075286 Units=m
New Line.LINE160 Bus1=158 Bus2=161 phases=3 Linecode=3c_300_SAC_XC Length=0.074674 Units=m
New Line.LINE163 Bus1=161 Bus2=164 phases=3 Linecode=3c_300_SAC_XC Length=0.075059 Units=m
New Line.LINE166 Bus1=164 Bus2=167 phases=3 Linecode=3c_300_SAC_XC Length=0.074953 Units=m
New Line.LINE169 Bus1=167 Bus2=170 phases=3 Linecode=3c_300_SAC_XC Length=1.9412 Units=m
New Line.LINE172 Bus1=170 Bus2=173 phases=3 Linecode=3c_300_SAC_XC Length=3.1523 Units=m
New Line.LINE175 Bus1=173 Bus2=176 phases=3 Linecode=3c_300_SAC_XC Length=1.4248 Units=m
New Line.LINE178 Bus1=176 Bus2=179 phases=3 Linecode=3c_300_SAC_XC Length=1.482 Units=m
New Line.LINE181 Bus1=179 Bus2=182 phases=3 Linecode=3c_300_SAC_XC Length=4.2359 Units=m
New Line.LINE184 Bus1=182 Bus2=185 phases=3 Linecode=3c_300_SAC_XC Length=4.0765 Units=m
New Line.LINE187 Bus1=185 Bus2=188 phases=3 Linecode=3c_300_SAC_XC Length=0.058249 Units=m
New Line.LINE190 Bus1=188 Bus2=191 phases=3 Linecode=3c_300_SAC_XC Length=0.063008 Units=m
New Line.LINE193 Bus1=191 Bus2=194 phases=3 Linecode=3c_300_SAC_XC Length=0.079006 Units=m
New Line.LINE196 Bus1=194 Bus2=197 phases=3 Linecode=3c_300_SAC_XC Length=0.631 Units=m
New Line.LINE199 Bus1=197 Bus2=1100 phases=3 Linecode=3c_300_SAC_XC Length=0.761 Units=m
New Line.LINE1102 Bus1=1100 Bus2=1103 phases=3 Linecode=3c_300_SAC_XC Length=0.36201 Units=m
New Line.LINE1105 Bus1=1103 Bus2=1106 phases=3 Linecode=3c_300_SAC_XC Length=0.262 Units=m
New Line.LINE1108 Bus1=1106 Bus2=1109 phases=3 Linecode=3c_300_SAC_XC Length=0.2146 Units=m
New Line.LINE1111 Bus1=1109 Bus2=1112 phases=3 Linecode=3c_300_SAC_XC Length=0.1063 Units=m
New Line.LINE1114 Bus1=1112 Bus2=1115 phases=3 Linecode=3c_300_SAC_XC Length=0.16568 Units=m
New Line.LINE1117 Bus1=1115 Bus2=1118 phases=3 Linecode=3c_300_SAC_XC Length=0.24574 Units=m
New Line.LINE1118 Bus1=1116 Bus2=1119 phases=3 Linecode=25_SAC_XC Length=6.4739 Units=m
New Line.LINE1119 Bus1=1116 Bus2=1120 phases=3 Linecode=25_SAC_XC Length=9.0685 Units=m
New Line.LINE1120 Bus1=1116 Bus2=1121 phases=3 Linecode=25_SAC_XC Length=9.0685 Units=m
New Line.LINE1121 Bus1=1116 Bus2=1122 phases=3 Linecode=25_SAC_XC Length=9.0685 Units=m
New Line.LINE1122 Bus1=1116 Bus2=1123 phases=3 Linecode=25_SAC_XC Length=9.0685 Units=m
New Line.LINE1123 Bus1=1116 Bus2=1124 phases=3 Linecode=25_SAC_XC Length=9.0685 Units=m
New Line.LINE1124 Bus1=1116 Bus2=1125 phases=3 Linecode=25_SAC_XC Length=9.0685 Units=m
New Line.LINE1125 Bus1=1116 Bus2=1126 phases=3 Linecode=25_SAC_XC Length=9.0685 Units=m
New Line.LINE1126 Bus1=1116 Bus2=1127 phases=3 Linecode=25_SAC_XC Length=9.0685 Units=m
New Line.LINE1127 Bus1=1116 Bus2=1128 phases=3 Linecode=25_SAC_XC Length=9.0685 Units=m
New Line.LINE1128 Bus1=1116 Bus2=1129 phases=3 Linecode=25_SAC_XC Length=9.0685 Units=m
New Line.LINE1129 Bus1=1116 Bus2=1130 phases=3 Linecode=25_SAC_XC Length=9.0685 Units=m
New Line.LINE1130 Bus1=1118 Bus2=1131 phases=3 Linecode=3c_300_SAC_XC Length=0.20904 Units=m
New Line.LINE1131 Bus1=1120 Bus2=1132 phases=3 Linecode=25_SAC_XC Length=10.4913 Units=m
New Line.LINE1132 Bus1=1131 Bus2=1133 phases=3 Linecode=3c_300_SAC_XC Length=0.14658 Units=m
New Line.LINE1135 Bus1=1133 Bus2=1136 phases=3 Linecode=3c_300_SAC_XC Length=0.16498 Units=m
New Line.LINE1138 Bus1=1136 Bus2=1139 phases=3 Linecode=3c_300_SAC_XC Length=0.15212 Units=m
New Line.LINE1141 Bus1=1139 Bus2=1142 phases=3 Linecode=4c_300_SAC Length=0.17464 Units=m
New Line.LINE1144 Bus1=1142 Bus2=1145 phases=3 Linecode=4c_300_SAC Length=0.15357 Units=m
New Line.LINE1147 Bus1=1145 Bus2=1148 phases=3 Linecode=4c_300_SAC Length=0.20309 Units=m
New Line.LINE1150 Bus1=1148 Bus2=1151 phases=3 Linecode=4c_300_SAC Length=4.8113 Units=m
New Line.LINE1153 Bus1=1151 Bus2=1154 phases=3 Linecode=3c_300_SAC_XC Length=0.25871 Units=m
New Line.LINE1156 Bus1=1154 Bus2=1157 phases=3 Linecode=3c_300_SAC_XC Length=0.07879 Units=m
New Line.LINE1159 Bus1=1157 Bus2=1160 phases=3 Linecode=3c_300_SAC_XC Length=0.1589 Units=m
New Line.LINE1162 Bus1=1160 Bus2=1163 phases=3 Linecode=3c_300_SAC_XC Length=0.13121 Units=m
New Line.LINE1165 Bus1=1163 Bus2=1166 phases=3 Linecode=3c_300_SAC_XC Length=0.29565 Units=m
New Line.LINE1168 Bus1=1166 Bus2=1169 phases=3 Linecode=3c_300_SAC_XC Length=0.18292 Units=m
New Line.LINE1171 Bus1=1169 Bus2=1172 phases=3 Linecode=3c_300_SAC_XC Length=0.29908 Units=m
New Line.LINE1174 Bus1=1172 Bus2=1175 phases=3 Linecode=3c_300_SAC_XC Length=0.27674 Units=m
New Line.LINE1177 Bus1=1175 Bus2=1178 phases=3 Linecode=3c_300_SAC_XC Length=1.3341 Units=m
New Line.LINE1180 Bus1=1178 Bus2=1181 phases=3 Linecode=3c_300_SAC_XC Length=1.4684 Units=m
New Line.LINE1184 Bus1=1181 Bus2=1185 phases=3 Linecode=3c_300_SAC_XC Length=0.66343 Units=m
New Line.LINE1188 Bus1=1185 Bus2=1189 phases=3 Linecode=3c_300_SAC_XC Length=1.2185 Units=m
New Line.LINE1191 Bus1=1189 Bus2=1192 phases=3 Linecode=3c_300_SAC_XC Length=1.7239 Units=m
New Line.LINE1195 Bus1=1192 Bus2=1196 phases=3 Linecode=3c_300_ASN Length=15.0222 Units=m
New Line.LINE1199 Bus1=1196 Bus2=1200 phases=3 Linecode=3c_300_ASN Length=8.8983 Units=m
New Line.LINE1203 Bus1=1200 Bus2=1204 phases=3 Linecode=3c_300_ASN Length=5.3712 Units=m
New Line.LINE1207 Bus1=1204 Bus2=1208 phases=3 Linecode=3c_300_ASN Length=0.32965 Units=m
New Line.LINE1214 Bus1=1208 Bus2=1215 phases=3 Linecode=3c_300_ASN Length=0.24574 Units=m
New Line.LINE1221 Bus1=1215 Bus2=1222 phases=3 Linecode=3c_300_ASN Length=0.16105 Units=m
New Line.LINE1228 Bus1=1222 Bus2=1229 phases=3 Linecode=3c_300_ASN Length=0.17376 Units=m
New Line.LINE1234 Bus1=1229 Bus2=1235 phases=3 Linecode=3c_300_ASN Length=1.2629 Units=m
New Line.LINE1240 Bus1=1235 Bus2=1241 phases=3 Linecode=25_SAC_XC Length=36.3848 Units=m
New Line.LINE1241 Bus1=1235 Bus2=1242 phases=3 Linecode=25_SAC_XC Length=36.3848 Units=m
New Line.LINE1242 Bus1=1235 Bus2=1243 phases=3 Linecode=25_SAC_XC Length=36.3848 Units=m
New Line.LINE1243 Bus1=1235 Bus2=1244 phases=3 Linecode=25_SAC_XC Length=36.3848 Units=m
New Line.LINE1244 Bus1=1235 Bus2=1245 phases=3 Linecode=25_SAC_XC Length=36.3848 Units=m
New Line.LINE1245 Bus1=1235 Bus2=1246 phases=3 Linecode=25_SAC_XC Length=36.3848 Units=m
New Line.LINE1246 Bus1=1235 Bus2=1247 phases=3 Linecode=25_SAC_XC Length=36.3848 Units=m
New Line.LINE1247 Bus1=1235 Bus2=1248 phases=3 Linecode=25_SAC_XC Length=15.8156 Units=m
New Line.LINE1Cmpd_0 Bus1=146 Bus2=1116 phases=3 Linecode=3c_300_SAC_XC Length=47.323946 Units=m
New Line.LINE22 Bus1=11 Bus2=23 phases=3 Linecode=25_SAC_XC Length=14.093 Units=m
New Line.LINE224 Bus1=224 Bus2=225 phases=3 Linecode=3c_300_SAC_XC Length=0.24921 Units=m
New Line.LINE226 Bus1=224 Bus2=227 phases=3 Linecode=4c_.5_SAC Length=0.14529 Units=m
New Line.LINE227 Bus1=225 Bus2=228 phases=3 Linecode=3c_300_SAC_XC Length=2.0366 Units=m
New Line.LINE229 Bus1=227 Bus2=230 phases=3 Linecode=4c_.5_SAC Length=0.12938 Units=m
New Line.LINE230 Bus1=228 Bus2=231 phases=3 Linecode=3c_300_SAC_XC Length=1.7141 Units=m
New Line.LINE232 Bus1=230 Bus2=233 phases=3 Linecode=4c_.5_SAC Length=0.098681 Units=m
New Line.LINE233 Bus1=231 Bus2=234 phases=3 Linecode=4c_300_SAC Length=1.4061 Units=m
New Line.LINE235 Bus1=233 Bus2=236 phases=3 Linecode=4c_.5_SAC Length=0.13283 Units=m
New Line.LINE236 Bus1=234 Bus2=237 phases=3 Linecode=4c_300_SAC Length=2.5245 Units=m
New Line.LINE238 Bus1=236 Bus2=239 phases=3 Linecode=4c_.5_SAC Length=0.109 Units=m
New Line.LINE239 Bus1=237 Bus2=240 phases=3 Linecode=4c_300_SAC Length=0.43503 Units=m
New Line.LINE241 Bus1=239 Bus2=242 phases=3 Linecode=4c_.5_SAC Length=0.14828 Units=m
New Line.LINE242 Bus1=240 Bus2=243 phases=3 Linecode=4c_300_SAC Length=0.586 Units=m
New Line.LINE244 Bus1=242 Bus2=245 phases=3 Linecode=4c_.5_SAC Length=0.26848 Units=m
New Line.LINE245 Bus1=243 Bus2=246 phases=3 Linecode=4c_300_SAC Length=0.67548 Units=m
New Line.LINE247 Bus1=245 Bus2=248 phases=3 Linecode=4c_.5_SAC Length=1.6219 Units=m
New Line.LINE248 Bus1=246 Bus2=249 phases=3 Linecode=4c_.5 Length=0.34383 Units=m
New Line.LINE250 Bus1=248 Bus2=251 phases=3 Linecode=4c_300_SAC Length=3.3886 Units=m
New Line.LINE251 Bus1=249 Bus2=252 phases=3 Linecode=4c_.5 Length=0.29854 Units=m
New Line.LINE253 Bus1=251 Bus2=254 phases=3 Linecode=4c_300_SAC Length=2.2898 Units=m
New Line.LINE254 Bus1=252 Bus2=255 phases=3 Linecode=4c_.5 Length=0.26964 Units=m
New Line.LINE256 Bus1=254 Bus2=257 phases=3 Linecode=4c_300_SAC Length=0.48484 Units=m
New Line.LINE257 Bus1=255 Bus2=258 phases=3 Linecode=4c_.5 Length=0.63295 Units=m
New Line.LINE259 Bus1=257 Bus2=260 phases=3 Linecode=4c_300_SAC Length=0.16574 Units=m
New Line.LINE260 Bus1=258 Bus2=261 phases=3 Linecode=4c_.5 Length=1.288 Units=m
New Line.LINE261 Bus1=260 Bus2=262 phases=3 Linecode=4c_300_SAC Length=0.14916 Units=m
New Line.LINE262 Bus1=261 Bus2=263 phases=3 Linecode=4c_.5 Length=4.6078 Units=m
New Line.LINE263 Bus1=262 Bus2=264 phases=3 Linecode=4c_300_SAC Length=0.15852 Units=m
New Line.LINE264 Bus1=263 Bus2=265 phases=3 Linecode=4c_.5 Length=0.045188 Units=m
New Line.LINE265 Bus1=264 Bus2=266 phases=3 Linecode=4c_300_SAC Length=0.22304 Units=m
New Line.LINE266 Bus1=265 Bus2=267 phases=3 Linecode=4c_.5 Length=0.040226 Units=m
New Line.LINE267 Bus1=266 Bus2=268 phases=3 Linecode=4c_300_SAC Length=0.32319 Units=m
New Line.LINE268 Bus1=267 Bus2=269 phases=3 Linecode=4c_.5 Length=0.066029 Units=m
New Line.LINE269 Bus1=268 Bus2=270 phases=3 Linecode=4c_.5 Length=0.16638 Units=m
New Line.LINE270 Bus1=269 Bus2=271 phases=3 Linecode=4c_.5 Length=0.047297 Units=m
New Line.LINE271 Bus1=270 Bus2=272 phases=3 Linecode=4c_.5 Length=5.0738 Units=m
New Line.LINE272 Bus1=271 Bus2=273 phases=3 Linecode=4c_.5 Length=0.035128 Units=m
New Line.LINE273 Bus1=272 Bus2=274 phases=3 Linecode=4c_.5 Length=0.1784 Units=m
New Line.LINE274 Bus1=273 Bus2=275 phases=3 Linecode=4c_.5 Length=0.050695 Units=m
New Line.LINE275 Bus1=274 Bus2=276 phases=3 Linecode=4c_.5 Length=0.16105 Units=m
New Line.LINE276 Bus1=275 Bus2=277 phases=3 Linecode=4c_.5 Length=4.4979 Units=m
New Line.LINE277 Bus1=276 Bus2=278 phases=3 Linecode=4c_.5 Length=0.207 Units=m
New Line.LINE278 Bus1=277 Bus2=279 phases=3 Linecode=4c_.5 Length=11.1133 Units=m
New Line.LINE279 Bus1=278 Bus2=280 phases=3 Linecode=4c_.5 Length=0.17899 Units=m
New Line.LINE281 Bus1=279 Bus2=282 phases=3 Linecode=4c_.5 Length=0.13507 Units=m
New Line.LINE282 Bus1=280 Bus2=283 phases=3 Linecode=4c_.5 Length=7.0307 Units=m
New Line.LINE284 Bus1=282 Bus2=285 phases=3 Linecode=4c_.5 Length=22.7208 Units=m
New Line.LINE285 Bus1=283 Bus2=286 phases=3 Linecode=4c_.5 Length=6.6708 Units=m
New Line.LINE287 Bus1=285 Bus2=288 phases=3 Linecode=4c_.5 Length=6.4315 Units=m
New Line.LINE288 Bus1=286 Bus2=289 phases=3 Linecode=3c_.5 Length=3.1691 Units=m
New Line.LINE291 Bus1=288 Bus2=292 phases=3 Linecode=4c_.5 Length=0.91798 Units=m
New Line.LINE292 Bus1=289 Bus2=293 phases=3 Linecode=3c_.5 Length=8.6618 Units=m
New Line.LINE295 Bus1=292 Bus2=296 phases=3 Linecode=4c_.5 Length=0.097497 Units=m
New Line.LINE296 Bus1=293 Bus2=297 phases=3 Linecode=3c_.5 Length=2.6706 Units=m
New Line.LINE299 Bus1=296 Bus2=2100 phases=3 Linecode=4c_.5 Length=0.067684 Units=m
New Line.LINE2100 Bus1=297 Bus2=2101 phases=3 Linecode=3c_.5 Length=12.4518 Units=m
New Line.LINE2103 Bus1=2100 Bus2=2104 phases=3 Linecode=4c_.5 Length=0.061008 Units=m
New Line.LINE2104 Bus1=2101 Bus2=2105 phases=3 Linecode=3c_.5 Length=0.23314 Units=m
New Line.LINE2107 Bus1=2104 Bus2=2108 phases=3 Linecode=4c_.5 Length=0.055785 Units=m
New Line.LINE2108 Bus1=2105 Bus2=2109 phases=3 Linecode=3c_.5 Length=0.15571 Units=m
New Line.LINE2111 Bus1=2108 Bus2=2112 phases=3 Linecode=4c_.5 Length=0.067601 Units=m
New Line.LINE2112 Bus1=2109 Bus2=2113 phases=3 Linecode=3c_.5 Length=0.15405 Units=m
New Line.LINE2115 Bus1=2112 Bus2=2116 phases=3 Linecode=4c_.5 Length=0.053077 Units=m
New Line.LINE2116 Bus1=2113 Bus2=2117 phases=3 Linecode=3c_.5 Length=0.114 Units=m
New Line.LINE2120 Bus1=2116 Bus2=2121 phases=3 Linecode=4c_.5 Length=0.18921 Units=m
New Line.LINE2121 Bus1=2117 Bus2=2122 phases=3 Linecode=3c_.5 Length=0.142 Units=m
New Line.LINE2125 Bus1=2121 Bus2=2126 phases=3 Linecode=4c_.5 Length=0.24909 Units=m
New Line.LINE2126 Bus1=2122 Bus2=2127 phases=3 Linecode=3c_.5 Length=0.16103 Units=m
New Line.LINE2129 Bus1=2126 Bus2=2130 phases=3 Linecode=4c_.5 Length=0.52192 Units=m
New Line.LINE2131 Bus1=2127 Bus2=2132 phases=3 Linecode=3c_.5 Length=0.34126 Units=m
New Line.LINE2134 Bus1=2130 Bus2=2135 phases=3 Linecode=4c_.5 Length=0.69759 Units=m
New Line.LINE2136 Bus1=2132 Bus2=2137 phases=3 Linecode=3c_.5 Length=1.8436 Units=m
New Line.LINE2139 Bus1=2135 Bus2=2140 phases=3 Linecode=4c_.5 Length=0.50032 Units=m
New Line.LINE2142 Bus1=2137 Bus2=2143 phases=3 Linecode=3c_.5 Length=14.2403 Units=m
New Line.LINE2146 Bus1=2140 Bus2=2147 phases=3 Linecode=4c_.5 Length=0.50759 Units=m
New Line.LINE2152 Bus1=2147 Bus2=2153 phases=3 Linecode=4c_.5 Length=15.2027 Units=m
New Line.LINE2158 Bus1=2153 Bus2=2159 phases=3 Linecode=4c_.5 Length=6.8211 Units=m
New Line.LINE2164 Bus1=2159 Bus2=2165 phases=3 Linecode=4c_.5 Length=0.18436 Units=m
New Line.LINE2170 Bus1=2165 Bus2=2171 phases=3 Linecode=4c_.5 Length=0.23386 Units=m
New Line.LINE2176 Bus1=2171 Bus2=2177 phases=3 Linecode=4c_.5 Length=0.8062 Units=m
New Line.LINE2183 Bus1=2177 Bus2=2184 phases=3 Linecode=4c_.5 Length=1.2795 Units=m
New Line.LINE2191 Bus1=2184 Bus2=2192 phases=3 Linecode=4c_.5 Length=1.5598 Units=m
New Line.LINE2199 Bus1=2192 Bus2=2200 phases=3 Linecode=3c_300_SAC_XC Length=0.47128 Units=m
New Line.LINE2208 Bus1=2200 Bus2=2209 phases=3 Linecode=3c_300_SAC_XC Length=0.19161 Units=m
New Line.LINE2218 Bus1=2209 Bus2=2219 phases=3 Linecode=3c_300_SAC_XC Length=0.25613 Units=m
New Line.LINE2227 Bus1=2219 Bus2=2228 phases=3 Linecode=3c_300_SAC_XC Length=0.327 Units=m
New Line.LINE2236 Bus1=2228 Bus2=2237 phases=3 Linecode=3c_300_SAC_XC Length=0.27906 Units=m
New Line.LINE2245 Bus1=2237 Bus2=2246 phases=3 Linecode=3c_300_SAC_XC Length=0.31691 Units=m
New Line.LINE2255 Bus1=2246 Bus2=2256 phases=3 Linecode=3c_300_SAC_XC Length=0.23201 Units=m
New Line.LINE2263 Bus1=2256 Bus2=2264 phases=3 Linecode=3c_300_SAC_XC Length=1.0982 Units=m
New Line.LINE2272 Bus1=2264 Bus2=2273 phases=3 Linecode=3c_300_SAC_XC Length=0.47161 Units=m
New Line.LINE2281 Bus1=2273 Bus2=2282 phases=3 Linecode=3c_300_SAC_XC Length=0.50545 Units=m
New Line.LINE2288 Bus1=2282 Bus2=2289 phases=3 Linecode=3c_300_SAC_XC Length=0.5864 Units=m
New Line.LINE2294 Bus1=2289 Bus2=2295 phases=3 Linecode=3c_300_SAC_XC Length=0.3281 Units=m
New Line.LINE2300 Bus1=2295 Bus2=2301 phases=3 Linecode=3c_300_SAC_XC Length=0.23255 Units=m
New Line.LINE2305 Bus1=2301 Bus2=2306 phases=3 Linecode=3c_300_SAC_XC Length=7.6585 Units=m
New Line.LINE2309 Bus1=2306 Bus2=2310 phases=3 Linecode=3c_300_SAC_XC Length=0.15305 Units=m
New Line.LINE2313 Bus1=2310 Bus2=2314 phases=3 Linecode=3c_300_SAC_XC Length=0.27093 Units=m
New Line.LINE2318 Bus1=2314 Bus2=2319 phases=3 Linecode=3c_300_SAC_XC Length=0.19646 Units=m
New Line.LINE2323 Bus1=2319 Bus2=2324 phases=3 Linecode=3c_300_SAC_XC Length=0.19513 Units=m
New Line.LINE2328 Bus1=2324 Bus2=2329 phases=3 Linecode=3c_300_SAC_XC Length=0.19526 Units=m
New Line.LINE2333 Bus1=2329 Bus2=2334 phases=3 Linecode=3c_300_SAC_XC Length=0.19647 Units=m
New Line.LINE2338 Bus1=2334 Bus2=2339 phases=3 Linecode=3c_300_SAC_XC Length=0.19506 Units=m
New Line.LINE2342 Bus1=2339 Bus2=2343 phases=3 Linecode=3c_300_SAC_XC Length=0.19524 Units=m
New Line.LINE2346 Bus1=2343 Bus2=2347 phases=3 Linecode=3c_300_SAC_XC Length=0.19589 Units=m
New Line.LINE2351 Bus1=2347 Bus2=2352 phases=3 Linecode=3c_300_SAC_XC Length=0.19536 Units=m
New Line.LINE2356 Bus1=2352 Bus2=2357 phases=3 Linecode=3c_300_SAC_XC Length=0.1958 Units=m
New Line.LINE2361 Bus1=2357 Bus2=2362 phases=3 Linecode=3c_300_SAC_XC Length=0.19504 Units=m
New Line.LINE2366 Bus1=2362 Bus2=2367 phases=3 Linecode=3c_300_SAC_XC Length=0.19556 Units=m
New Line.LINE2370 Bus1=2367 Bus2=2371 phases=3 Linecode=3c_300_SAC_XC Length=3.5596 Units=m
New Line.LINE2375 Bus1=2371 Bus2=2376 phases=3 Linecode=3c_300_SAC_XC Length=0.91971 Units=m
New Line.LINE2380 Bus1=2376 Bus2=2381 phases=3 Linecode=3c_300_SAC_XC Length=0.27818 Units=m
New Line.LINE2385 Bus1=2381 Bus2=2386 phases=3 Linecode=25_SAC_XC Length=0.47293 Units=m
New Line.LINE2389 Bus1=2386 Bus2=2390 phases=3 Linecode=25_SAC_XC Length=0.76494 Units=m
New Line.LINE2393 Bus1=2390 Bus2=2394 phases=3 Linecode=25_SAC_XC Length=0.7653 Units=m
New Line.LINE2397 Bus1=2394 Bus2=2398 phases=3 Linecode=25_SAC_XC Length=0.76525 Units=m
New Line.LINE2400 Bus1=2398 Bus2=2401 phases=3 Linecode=25_SAC_XC Length=0.76522 Units=m
New Line.LINE2403 Bus1=2401 Bus2=2404 phases=3 Linecode=25_SAC_XC Length=0.76463 Units=m
New Line.LINE2406 Bus1=2404 Bus2=2407 phases=3 Linecode=25_SAC_XC Length=0.76542 Units=m
New Line.LINE2409 Bus1=2407 Bus2=2410 phases=3 Linecode=25_SAC_XC Length=0.765 Units=m
New Line.LINE2412 Bus1=2410 Bus2=2413 phases=3 Linecode=25_SAC_XC Length=6.3877 Units=m
New Line.LINE2415 Bus1=2413 Bus2=2416 phases=3 Linecode=25_SAC_XC Length=19 Units=m
New Line.LINE2418 Bus1=2416 Bus2=2419 phases=3 Linecode=25_SAC_XC Length=10.6834 Units=m
New Line.LINE2421 Bus1=2419 Bus2=2422 phases=3 Linecode=4c_95_SAC_XC Length=8.8617 Units=m
New Line.LINE2423 Bus1=2422 Bus2=2424 phases=3 Linecode=4c_95_SAC_XC Length=0.25959 Units=m
New Line.LINE2425 Bus1=2424 Bus2=2426 phases=3 Linecode=4c_95_SAC_XC Length=0.46348 Units=m
New Line.LINE2427 Bus1=2426 Bus2=2428 phases=3 Linecode=4c_95_SAC_XC Length=0.89337 Units=m
New Line.LINE2430 Bus1=2428 Bus2=2431 phases=3 Linecode=4c_95_SAC_XC Length=0.46137 Units=m
New Line.LINE2433 Bus1=2431 Bus2=2434 phases=3 Linecode=4c_95_SAC_XC Length=0.16808 Units=m
New Line.LINE2435 Bus1=2434 Bus2=2436 phases=3 Linecode=4c_95_SAC_XC Length=0.37044 Units=m
New Line.LINE2437 Bus1=2436 Bus2=2438 phases=3 Linecode=4c_95_SAC_XC Length=0.26499 Units=m
New Line.LINE2439 Bus1=2438 Bus2=2440 phases=3 Linecode=4c_95_SAC_XC Length=0.30997 Units=m
New Line.LINE2441 Bus1=2440 Bus2=2442 phases=3 Linecode=4c_95_SAC_XC Length=8.8451 Units=m
New Line.LINE2443 Bus1=2442 Bus2=2444 phases=3 Linecode=25_SAC_XC Length=10.2776 Units=m
New Line.LINE2Cmpd_0 Bus1=11 Bus2=224 phases=3 Linecode=3c_300_SAC_XC Length=27.10283 Units=m
New Line.LINE31 Bus1=11 Bus2=32 phases=3 Linecode=3c_300_SAC_XC Length=0.25077 Units=m
New Line.LINE32 Bus1=32 Bus2=33 phases=3 Linecode=3c_300_SAC_XC Length=0.051866 Units=m
New Line.LINE33 Bus1=33 Bus2=34 phases=3 Linecode=3c_300_SAC_XC Length=0.031065 Units=m
New Line.LINE34 Bus1=34 Bus2=35 phases=3 Linecode=3c_300_SAC_XC Length=0.0314 Units=m
New Line.LINE35 Bus1=35 Bus2=36 phases=3 Linecode=3c_300_SAC_XC Length=0.038601 Units=m
New Line.LINE36 Bus1=36 Bus2=37 phases=3 Linecode=3c_300_SAC_XC Length=0.056294 Units=m
New Line.LINE37 Bus1=37 Bus2=38 phases=3 Linecode=3c_300_SAC_XC Length=0.047424 Units=m
New Line.LINE38 Bus1=38 Bus2=39 phases=3 Linecode=3c_300_SAC_XC Length=0.047321 Units=m
New Line.LINE39 Bus1=39 Bus2=310 phases=3 Linecode=3c_300_SAC_XC Length=0.055698 Units=m
New Line.LINE310 Bus1=310 Bus2=311 phases=3 Linecode=3c_300_SAC_XC Length=0.034 Units=m
New Line.LINE311 Bus1=311 Bus2=312 phases=3 Linecode=3c_300_SAC_XC Length=0.08127 Units=m
New Line.LINE312 Bus1=312 Bus2=313 phases=3 Linecode=3c_300_SAC_XC Length=0.5174 Units=m
New Line.LINE313 Bus1=313 Bus2=314 phases=3 Linecode=3c_300_SAC_XC Length=0.26439 Units=m
New Line.LINE314 Bus1=314 Bus2=315 phases=3 Linecode=3c_300_SAC_XC Length=1.5261 Units=m
New Line.LINE315 Bus1=315 Bus2=316 phases=3 Linecode=3c_300_SAC_XC Length=0.069291 Units=m
New Line.LINE316 Bus1=316 Bus2=317 phases=3 Linecode=3c_300_SAC_XC Length=0.081411 Units=m
New Line.LINE317 Bus1=317 Bus2=318 phases=3 Linecode=3c_300_SAC_XC Length=0.061295 Units=m
New Line.LINE318 Bus1=318 Bus2=319 phases=3 Linecode=3c_300_SAC_XC Length=0.041869 Units=m
New Line.LINE319 Bus1=319 Bus2=320 phases=3 Linecode=3c_300_SAC_XC Length=0.099402 Units=m
New Line.LINE320 Bus1=320 Bus2=321 phases=3 Linecode=3c_300_SAC_XC Length=0.098839 Units=m
New Line.LINE321 Bus1=321 Bus2=322 phases=3 Linecode=3c_300_SAC_XC Length=0.099328 Units=m
New Line.LINE322 Bus1=322 Bus2=323 phases=3 Linecode=3c_300_SAC_XC Length=0.09985 Units=m
New Line.LINE323 Bus1=323 Bus2=324 phases=3 Linecode=3c_300_SAC_XC Length=0.099126 Units=m
New Line.LINE324 Bus1=324 Bus2=325 phases=3 Linecode=3c_300_SAC_XC Length=0.099247 Units=m
New Line.LINE325 Bus1=325 Bus2=326 phases=3 Linecode=3c_300_SAC_XC Length=0.53899 Units=m
New Line.LINE326 Bus1=326 Bus2=327 phases=3 Linecode=3c_300_SAC_XC Length=1.3641 Units=m
New Line.LINE327 Bus1=327 Bus2=328 phases=3 Linecode=3c_300_SAC_XC Length=2.0852 Units=m
New Line.LINE328 Bus1=328 Bus2=329 phases=3 Linecode=3c_300_SAC_XC Length=1.3633 Units=m
New Line.LINE329 Bus1=329 Bus2=330 phases=3 Linecode=3c_300_SAC_XC Length=1.0549 Units=m
New Line.LINE330 Bus1=330 Bus2=331 phases=3 Linecode=3c_300_SAC_XC Length=0.87671 Units=m
New Line.LINE331 Bus1=331 Bus2=332 phases=3 Linecode=3c_300_SAC_XC Length=0.40268 Units=m
New Line.LINE332 Bus1=332 Bus2=333 phases=3 Linecode=3c_300_SAC_XC Length=0.19676 Units=m
New Line.LINE333 Bus1=333 Bus2=334 phases=3 Linecode=3c_300_SAC_XC Length=3.2652 Units=m
New Line.LINE334 Bus1=334 Bus2=335 phases=3 Linecode=3c_300_SAC_XC Length=6.5935 Units=m
New Line.LINE335 Bus1=335 Bus2=336 phases=3 Linecode=3c_300_SAC_XC Length=0.99242 Units=m
New Line.LINE336 Bus1=336 Bus2=337 phases=3 Linecode=3c_300_SAC_XC Length=0.2614 Units=m
New Line.LINE337 Bus1=337 Bus2=338 phases=3 Linecode=3c_300_SAC_XC Length=0.24292 Units=m
New Line.LINE338 Bus1=338 Bus2=339 phases=3 Linecode=3c_300_SAC_XC Length=1.7197 Units=m
New Line.LINE339 Bus1=339 Bus2=340 phases=3 Linecode=3c_300_SAC_XC Length=1.5537 Units=m
New Line.LINE340 Bus1=340 Bus2=341 phases=3 Linecode=3c_300_SAC_XC Length=2.2715 Units=m
New Line.LINE341 Bus1=341 Bus2=342 phases=3 Linecode=3c_300_SAC_XC Length=1.0138 Units=m
New Line.LINE342 Bus1=342 Bus2=343 phases=3 Linecode=3c_300_SAC_XC Length=0.26438 Units=m
New Line.LINE343 Bus1=343 Bus2=344 phases=3 Linecode=4c_300_SAC Length=0.74316 Units=m
New Line.LINE344 Bus1=344 Bus2=345 phases=3 Linecode=4c_300_SAC Length=3.1371 Units=m
New Line.LINE345 Bus1=345 Bus2=346 phases=3 Linecode=4c_300_SAC Length=0.60093 Units=m
New Line.LINE346 Bus1=346 Bus2=347 phases=3 Linecode=4c_300_SAC Length=0.54027 Units=m
New Line.LINE347 Bus1=347 Bus2=348 phases=3 Linecode=4c_300_SAC Length=0.40599 Units=m
New Line.LINE348 Bus1=348 Bus2=349 phases=3 Linecode=4c_.5 Length=0.6109 Units=m
New Line.LINE349 Bus1=349 Bus2=350 phases=3 Linecode=4c_.5 Length=0.25371 Units=m
New Line.LINE350 Bus1=350 Bus2=351 phases=3 Linecode=4c_.5 Length=6.5347 Units=m
New Line.LINE351 Bus1=351 Bus2=352 phases=3 Linecode=4c_.5 Length=0.045309 Units=m
New Line.LINE352 Bus1=352 Bus2=353 phases=3 Linecode=4c_.5 Length=0.045222 Units=m
New Line.LINE353 Bus1=353 Bus2=354 phases=3 Linecode=4c_.5 Length=0.037483 Units=m
New Line.LINE354 Bus1=354 Bus2=355 phases=3 Linecode=4c_.5 Length=0.035467 Units=m
New Line.LINE355 Bus1=355 Bus2=356 phases=3 Linecode=4c_.5 Length=0.037485 Units=m
New Line.LINE356 Bus1=356 Bus2=357 phases=3 Linecode=4c_.5 Length=0.036124 Units=m
New Line.LINE357 Bus1=357 Bus2=358 phases=3 Linecode=4c_.5 Length=0.040261 Units=m
New Line.LINE358 Bus1=358 Bus2=359 phases=3 Linecode=4c_.5 Length=4.3024 Units=m
New Line.LINE359 Bus1=359 Bus2=360 phases=3 Linecode=4c_.5 Length=11.2475 Units=m
New Line.LINE360 Bus1=360 Bus2=361 phases=3 Linecode=4c_.5 Length=22.7178 Units=m
New Line.LINE361 Bus1=361 Bus2=362 phases=3 Linecode=4c_.5 Length=6.4214 Units=m
New Line.LINE362 Bus1=362 Bus2=363 phases=3 Linecode=4c_.5 Length=0.78067 Units=m
New Line.LINE363 Bus1=363 Bus2=364 phases=3 Linecode=4c_.5 Length=1.0662 Units=m
New Line.LINE364 Bus1=364 Bus2=365 phases=3 Linecode=4c_.5 Length=0.44761 Units=m
New Line.LINE365 Bus1=365 Bus2=366 phases=3 Linecode=4c_.5 Length=0.44842 Units=m
New Line.LINE366 Bus1=366 Bus2=367 phases=3 Linecode=4c_.5 Length=0.30219 Units=m
New Line.LINE367 Bus1=367 Bus2=368 phases=3 Linecode=4c_.5 Length=0.32244 Units=m
New Line.LINE368 Bus1=368 Bus2=369 phases=3 Linecode=4c_.5 Length=0.369 Units=m
New Line.LINE369 Bus1=369 Bus2=370 phases=3 Linecode=4c_.5 Length=0.26388 Units=m
New Line.LINE370 Bus1=370 Bus2=371 phases=3 Linecode=4c_.5 Length=0.46168 Units=m
New Line.LINE371 Bus1=371 Bus2=372 phases=3 Linecode=4c_.5 Length=2.5752 Units=m
New Line.LINE372 Bus1=372 Bus2=373 phases=3 Linecode=4c_.5 Length=2.5765 Units=m
New Line.LINE373 Bus1=373 Bus2=374 phases=3 Linecode=4c_.5 Length=10.8712 Units=m
New Line.LINE374 Bus1=374 Bus2=375 phases=3 Linecode=4c_.5 Length=10.8712 Units=m
New Line.LINE375 Bus1=375 Bus2=376 phases=3 Linecode=4c_.5 Length=0.92068 Units=m
New Line.LINE376 Bus1=376 Bus2=377 phases=3 Linecode=4c_.5 Length=4.2388 Units=m
New Line.LINE377 Bus1=377 Bus2=378 phases=3 Linecode=4c_.5 Length=0.45437 Units=m
New Line.LINE378 Bus1=378 Bus2=379 phases=3 Linecode=4c_.5 Length=1.5074 Units=m
New Line.LINE379 Bus1=379 Bus2=380 phases=3 Linecode=4c_.5 Length=0.66921 Units=m
New Line.LINE380 Bus1=380 Bus2=381 phases=3 Linecode=4c_.5 Length=2.9181 Units=m
New Line.LINE381 Bus1=381 Bus2=382 phases=3 Linecode=4c_.5 Length=20.7134 Units=m
New Line.LINE382 Bus1=382 Bus2=383 phases=3 Linecode=4c_.5 Length=3.8079 Units=m
New Line.LINE383 Bus1=383 Bus2=384 phases=3 Linecode=4c_.5 Length=0.25589 Units=m
New Line.LINE384 Bus1=384 Bus2=385 phases=3 Linecode=4c_.5 Length=1.5965 Units=m
New Line.LINE385 Bus1=385 Bus2=386 phases=3 Linecode=4c_300_SAC Length=0.59994 Units=m
New Line.LINE386 Bus1=386 Bus2=387 phases=3 Linecode=4c_300_SAC Length=0.36225 Units=m
New Line.LINE387 Bus1=387 Bus2=388 phases=3 Linecode=4c_300_SAC Length=0.159 Units=m
New Line.LINE388 Bus1=388 Bus2=389 phases=3 Linecode=4c_300_SAC Length=0.19657 Units=m