New Line.LINE1 Bus1=1 Bus2=2 phases=3 Linecode=4c_.25 Length=0.98668 Units=m
New Line.LINE2 Bus1=2 Bus2=3 phases=3 Linecode=4c_.25 Length=0.085494 Units=m
New Line.LINE3 Bus1=3 Bus2=4 phases=3 Linecode=4c_.25 Length=0.1414 Units=m
New Line.LINE4 Bus1=4 Bus2=5 phases=3 Linecode=4c_.25 Length=0.1009 Units=m
New Line.LINE5 Bus1=5 Bus2=6 phases=3 Linecode=4c_.25 Length=0.097062 Units=m
New Line.LINE6 Bus1=6 Bus2=7 phases=3 Linecode=4c_.25 Length=0.13025 Units=m
New Line.LINE7 Bus1=7 Bus2=8 phases=3 Linecode=4c_.25 Length=0.129 Units=m
New Line.LINE8 Bus1=8 Bus2=9 phases=3 Linecode=4c_.25 Length=0.10502 Units=m
New Line.LINE9 Bus1=9 Bus2=10 phases=3 Linecode=4c_.25 Length=0.53928 Units=m
New Line.LINE10 Bus1=10 Bus2=11 phases=3 Linecode=4c_.25 Length=0.16256 Units=m
New Line.LINE11 Bus1=11 Bus2=12 phases=3 Linecode=4c_.25 Length=0.164 Units=m
New Line.LINE12 Bus1=12 Bus2=13 phases=3 Linecode=4c_.25 Length=0.15146 Units=m
New Line.LINE13 Bus1=13 Bus2=14 phases=3 Linecode=4c_.25 Length=0.15033 Units=m
New Line.LINE14 Bus1=14 Bus2=15 phases=3 Linecode=4c_.25 Length=0.101 Units=m
New Line.LINE15 Bus1=15 Bus2=16 phases=3 Linecode=4c_.25 Length=0.20304 Units=m
New Line.LINE16 Bus1=16 Bus2=17 phases=3 Linecode=4c_.25 Length=0.28936 Units=m
New Line.LINE17 Bus1=17 Bus2=18 phases=3 Linecode=4c_.25 Length=0.37381 Units=m
New Line.LINE18 Bus1=18 Bus2=19 phases=3 Linecode=4c_.25 Length=0.4315 Units=m
New Line.LINE19 Bus1=19 Bus2=20 phases=3 Linecode=4c_.25 Length=0.38908 Units=m
New Line.LINE20 Bus1=20 Bus2=21 phases=3 Linecode=4c_.25 Length=0.42339 Units=m
New Line.LINE21 Bus1=21 Bus2=22 phases=3 Linecode=4c_.25 Length=0.36872 Units=m
New Line.LINE22 Bus1=22 Bus2=23 phases=3 Linecode=4c_.25 Length=0.32704 Units=m
New Line.LINE23 Bus1=23 Bus2=24 phases=3 Linecode=4c_.25 Length=0.41008 Units=m
New Line.LINE24 Bus1=24 Bus2=25 phases=3 Linecode=4c_.25 Length=0.40317 Units=m
New Line.LINE25 Bus1=25 Bus2=26 phases=3 Linecode=4c_.25 Length=0.44942 Units=m
New Line.LINE26 Bus1=26 Bus2=27 phases=3 Linecode=4c_.25 Length=0.2329 Units=m
New Line.LINE27 Bus1=27 Bus2=28 phases=3 Linecode=4c_.25 Length=0.3891 Units=m
New Line.LINE28 Bus1=28 Bus2=29 phases=3 Linecode=3c_240_SAC_XC Length=0.57277 Units=m
New Line.LINE29 Bus1=29 Bus2=30 phases=3 Linecode=3c_240_SAC_XC Length=6.5824 Units=m
New Line.LINE30 Bus1=30 Bus2=31 phases=3 Linecode=3c_240_SAC_XC Length=1.5394 Units=m
New Line.LINE31 Bus1=31 Bus2=32 phases=3 Linecode=3c_240_SAC_XC Length=0.30305 Units=m
New Line.LINE32 Bus1=32 Bus2=33 phases=3 Linecode=3c_240_SAC_XC Length=0.36586 Units=m
New Line.LINE33 Bus1=33 Bus2=34 phases=3 Linecode=3c_240_SAC_XC Length=0.46683 Units=m
New Line.LINE34 Bus1=34 Bus2=35 phases=3 Linecode=3c_240_SAC_XC Length=0.49314 Units=m
New Line.LINE35 Bus1=35 Bus2=36 phases=3 Linecode=3c_240_SAC_XC Length=1.287 Units=m
New Line.LINE36 Bus1=36 Bus2=37 phases=3 Linecode=3c_240_SAC_XC Length=0.67711 Units=m
New Line.LINE37 Bus1=37 Bus2=38 phases=3 Linecode=3c_240_SAC_XC Length=0.19671 Units=m
New Line.LINE38 Bus1=38 Bus2=39 phases=3 Linecode=3c_240_SAC_XC Length=0.11802 Units=m
New Line.LINE39 Bus1=39 Bus2=40 phases=3 Linecode=3c_240_SAC_XC Length=0.085999 Units=m
New Line.LINE40 Bus1=40 Bus2=41 phases=3 Linecode=3c_240_SAC_XC Length=0.072835 Units=m
New Line.LINE41 Bus1=41 Bus2=42 phases=3 Linecode=3c_240_SAC_XC Length=0.063152 Units=m
New Line.LINE42 Bus1=42 Bus2=43 phases=3 Linecode=3c_240_SAC_XC Length=0.067778 Units=m
New Line.LINE43 Bus1=43 Bus2=44 phases=3 Linecode=3c_240_SAC_XC Length=0.074632 Units=m
New Line.LINE44 Bus1=44 Bus2=45 phases=3 Linecode=3c_240_SAC_XC Length=0.075689 Units=m
New Line.LINE45 Bus1=45 Bus2=46 phases=3 Linecode=3c_240_SAC_XC Length=0.15166 Units=m
New Line.LINE46 Bus1=46 Bus2=47 phases=3 Linecode=3c_300_SAC_XC Length=0.12107 Units=m
New Line.LINE49 Bus1=47 Bus2=50 phases=3 Linecode=3c_300_SAC_XC Length=0.075181 Units=m
New Line.LINE57 Bus1=50 Bus2=58 phases=3 Linecode=3c_300_SAC_XC Length=0.075286 Units=m
New Line.LINE60 Bus1=58 Bus2=61 phases=3 Linecode=3c_300_SAC_XC Length=0.074674 Units=m
New Line.LINE63 Bus1=61 Bus2=64 phases=3 Linecode=3c_300_SAC_XC Length=0.075059 Units=m
New Line.LINE66 Bus1=64 Bus2=67 phases=3 Linecode=3c_300_SAC_XC Length=0.074953 Units=m
New Line.LINE69 Bus1=67 Bus2=70 phases=3 Linecode=3c_300_SAC_XC Length=1.9412 Units=m
New Line.LINE72 Bus1=70 Bus2=73 phases=3 Linecode=3c_300_SAC_XC Length=3.1523 Units=m
New Line.LINE75 Bus1=73 Bus2=76 phases=3 Linecode=3c_300_SAC_XC Length=1.4248 Units=m
New Line.LINE78 Bus1=76 Bus2=79 phases=3 Linecode=3c_300_SAC_XC Length=1.482 Units=m
New Line.LINE81 Bus1=79 Bus2=82 phases=3 Linecode=3c_300_SAC_XC Length=4.2359 Units=m
New Line.LINE84 Bus1=82 Bus2=85 phases=3 Linecode=3c_300_SAC_XC Length=4.0765 Units=m
New Line.LINE87 Bus1=85 Bus2=88 phases=3 Linecode=3c_300_SAC_XC Length=0.058249 Units=m
New Line.LINE90 Bus1=88 Bus2=91 phases=3 Linecode=3c_300_SAC_XC Length=0.063008 Units=m
New Line.LINE93 Bus1=91 Bus2=94 phases=3 Linecode=3c_300_SAC_XC Length=0.079006 Units=m
New Line.LINE96 Bus1=94 Bus2=97 phases=3 Linecode=3c_300_SAC_XC Length=0.631 Units=m
New Line.LINE99 Bus1=97 Bus2=100 phases=3 Linecode=3c_300_SAC_XC Length=0.761 Units=m
New Line.LINE102 Bus1=100 Bus2=103 phases=3 Linecode=3c_300_SAC_XC Length=0.36201 Units=m
New Line.LINE105 Bus1=103 Bus2=106 phases=3 Linecode=3c_300_SAC_XC Length=0.262 Units=m
New Line.LINE108 Bus1=106 Bus2=109 phases=3 Linecode=3c_300_SAC_XC Length=0.2146 Units=m
New Line.LINE111 Bus1=109 Bus2=112 phases=3 Linecode=3c_300_SAC_XC Length=0.1063 Units=m
New Line.LINE114 Bus1=112 Bus2=115 phases=3 Linecode=3c_300_SAC_XC Length=0.16568 Units=m
New Line.LINE117 Bus1=115 Bus2=118 phases=3 Linecode=3c_300_SAC_XC Length=0.24574 Units=m
New Line.LINE118 Bus1=116 Bus2=119 phases=3 Linecode=25_SAC_XC Length=6.4739 Units=m
New Line.LINE119 Bus1=116 Bus2=120 phases=3 Linecode=25_SAC_XC Length=9.0685 Units=m
New Line.LINE120 Bus1=116 Bus2=121 phases=3 Linecode=25_SAC_XC Length=9.0685 Units=m
New Line.LINE121 Bus1=116 Bus2=122 phases=3 Linecode=25_SAC_XC Length=9.0685 Units=m
New Line.LINE122 Bus1=116 Bus2=123 phases=3 Linecode=25_SAC_XC Length=9.0685 Units=m
New Line.LINE123 Bus1=116 Bus2=124 phases=3 Linecode=25_SAC_XC Length=9.0685 Units=m
New Line.LINE124 Bus1=116 Bus2=125 phases=3 Linecode=25_SAC_XC Length=9.0685 Units=m
New Line.LINE125 Bus1=116 Bus2=126 phases=3 Linecode=25_SAC_XC Length=9.0685 Units=m
New Line.LINE126 Bus1=116 Bus2=127 phases=3 Linecode=25_SAC_XC Length=9.0685 Units=m
New Line.LINE127 Bus1=116 Bus2=128 phases=3 Linecode=25_SAC_XC Length=9.0685 Units=m
New Line.LINE128 Bus1=116 Bus2=129 phases=3 Linecode=25_SAC_XC Length=9.0685 Units=m
New Line.LINE129 Bus1=116 Bus2=130 phases=3 Linecode=25_SAC_XC Length=9.0685 Units=m
New Line.LINE130 Bus1=118 Bus2=131 phases=3 Linecode=3c_300_SAC_XC Length=0.20904 Units=m
New Line.LINE131 Bus1=120 Bus2=132 phases=3 Linecode=25_SAC_XC Length=10.4913 Units=m
New Line.LINE132 Bus1=131 Bus2=133 phases=3 Linecode=3c_300_SAC_XC Length=0.14658 Units=m
New Line.LINE135 Bus1=133 Bus2=136 phases=3 Linecode=3c_300_SAC_XC Length=0.16498 Units=m
New Line.LINE138 Bus1=136 Bus2=139 phases=3 Linecode=3c_300_SAC_XC Length=0.15212 Units=m
New Line.LINE141 Bus1=139 Bus2=142 phases=3 Linecode=4c_300_SAC Length=0.17464 Units=m
New Line.LINE144 Bus1=142 Bus2=145 phases=3 Linecode=4c_300_SAC Length=0.15357 Units=m
New Line.LINE147 Bus1=145 Bus2=148 phases=3 Linecode=4c_300_SAC Length=0.20309 Units=m
New Line.LINE150 Bus1=148 Bus2=151 phases=3 Linecode=4c_300_SAC Length=4.8113 Units=m
New Line.LINE153 Bus1=151 Bus2=154 phases=3 Linecode=3c_300_SAC_XC Length=0.25871 Units=m
New Line.LINE156 Bus1=154 Bus2=157 phases=3 Linecode=3c_300_SAC_XC Length=0.07879 Units=m
New Line.LINE159 Bus1=157 Bus2=160 phases=3 Linecode=3c_300_SAC_XC Length=0.1589 Units=m
New Line.LINE162 Bus1=160 Bus2=163 phases=3 Linecode=3c_300_SAC_XC Length=0.13121 Units=m
New Line.LINE165 Bus1=163 Bus2=166 phases=3 Linecode=3c_300_SAC_XC Length=0.29565 Units=m
New Line.LINE168 Bus1=166 Bus2=169 phases=3 Linecode=3c_300_SAC_XC Length=0.18292 Units=m
New Line.LINE171 Bus1=169 Bus2=172 phases=3 Linecode=3c_300_SAC_XC Length=0.29908 Units=m
New Line.LINE174 Bus1=172 Bus2=175 phases=3 Linecode=3c_300_SAC_XC Length=0.27674 Units=m
New Line.LINE177 Bus1=175 Bus2=178 phases=3 Linecode=3c_300_SAC_XC Length=1.3341 Units=m
New Line.LINE180 Bus1=178 Bus2=181 phases=3 Linecode=3c_300_SAC_XC Length=1.4684 Units=m
New Line.LINE184 Bus1=181 Bus2=185 phases=3 Linecode=3c_300_SAC_XC Length=0.66343 Units=m
New Line.LINE188 Bus1=185 Bus2=189 phases=3 Linecode=3c_300_SAC_XC Length=1.2185 Units=m
New Line.LINE191 Bus1=189 Bus2=192 phases=3 Linecode=3c_300_SAC_XC Length=1.7239 Units=m
New Line.LINE195 Bus1=192 Bus2=196 phases=3 Linecode=3c_300_ASN Length=15.0222 Units=m
New Line.LINE199 Bus1=196 Bus2=200 phases=3 Linecode=3c_300_ASN Length=8.8983 Units=m
New Line.LINE203 Bus1=200 Bus2=204 phases=3 Linecode=3c_300_ASN Length=5.3712 Units=m
New Line.LINE207 Bus1=204 Bus2=208 phases=3 Linecode=3c_300_ASN Length=0.32965 Units=m
New Line.LINE214 Bus1=208 Bus2=215 phases=3 Linecode=3c_300_ASN Length=0.24574 Units=m
New Line.LINE221 Bus1=215 Bus2=222 phases=3 Linecode=3c_300_ASN Length=0.16105 Units=m
New Line.LINE228 Bus1=222 Bus2=229 phases=3 Linecode=3c_300_ASN Length=0.17376 Units=m
New Line.LINE234 Bus1=229 Bus2=235 phases=3 Linecode=3c_300_ASN Length=1.2629 Units=m
New Line.LINE240 Bus1=235 Bus2=241 phases=3 Linecode=25_SAC_XC Length=36.3848 Units=m
New Line.LINE241 Bus1=235 Bus2=242 phases=3 Linecode=25_SAC_XC Length=36.3848 Units=m
New Line.LINE242 Bus1=235 Bus2=243 phases=3 Linecode=25_SAC_XC Length=36.3848 Units=m
New Line.LINE243 Bus1=235 Bus2=244 phases=3 Linecode=25_SAC_XC Length=36.3848 Units=m
New Line.LINE244 Bus1=235 Bus2=245 phases=3 Linecode=25_SAC_XC Length=36.3848 Units=m
New Line.LINE245 Bus1=235 Bus2=246 phases=3 Linecode=25_SAC_XC Length=36.3848 Units=m
New Line.LINE246 Bus1=235 Bus2=247 phases=3 Linecode=25_SAC_XC Length=36.3848 Units=m
New Line.LINE247 Bus1=235 Bus2=248 phases=3 Linecode=25_SAC_XC Length=15.8156 Units=m
New Line.LINECmpd_0 Bus1=46 Bus2=116 phases=3 Linecode=3c_300_SAC_XC Length=47.323946 Units=m
