New Line.LINE182_93 Bus1=182_92 Bus2=182_94 phases=3 Linecode=4c_.2 Length=1.2181 Units=m
New Line.LINE182_185 Bus1=182_182 Bus2=182_186 phases=3 Linecode=4c_.1 Length=2.6494 Units=m
New Line.LINE182_195 Bus1=182_189 Bus2=182_196 phases=3 Linecode=2c_.0225 Length=0.88352 Units=m
New Line.LINE182_288 Bus1=182_280 Bus2=182_289 phases=3 Linecode=4c_.1 Length=3.9654 Units=m
New Line.LINE182_297 Bus1=182_289 Bus2=182_298 phases=3 Linecode=4c_.1 Length=4.9005 Units=m
New Line.LINE182_307 Bus1=182_298 Bus2=182_308 phases=3 Linecode=35_SAC_XSC Length=6.4564 Units=m
New Line.LINE182_317 Bus1=182_308 Bus2=182_318 phases=3 Linecode=35_SAC_XSC Length=0.20294 Units=m
New Line.LINE182_327 Bus1=182_318 Bus2=182_328 phases=3 Linecode=35_SAC_XSC Length=0.032062 Units=m
New Line.LINE182_336 Bus1=182_328 Bus2=182_337 phases=3 Linecode=35_SAC_XSC Length=0.031401 Units=m
New Line.LINE182_339 Bus1=182_332 Bus2=182_340 phases=3 Linecode=4c_.1 Length=0.84246 Units=m
New Line.LINE182_345 Bus1=182_337 Bus2=182_346 phases=3 Linecode=35_SAC_XSC Length=0.031624 Units=m
New Line.LINE182_348 Bus1=182_340 Bus2=182_349 phases=3 Linecode=3c_95_SAC_ASN Length=5.5989 Units=m
New Line.LINE182_354 Bus1=182_346 Bus2=182_355 phases=3 Linecode=35_SAC_XSC Length=0.032249 Units=m
New Line.LINE182_358 Bus1=182_349 Bus2=182_359 phases=3 Linecode=3c_95_SAC_ASN Length=1.3863 Units=m
New Line.LINE182_364 Bus1=182_355 Bus2=182_365 phases=3 Linecode=35_SAC_XSC Length=0.03124 Units=m
New Line.LINE182_368 Bus1=182_359 Bus2=182_369 phases=3 Linecode=3c_95_SAC_ASN Length=0.85948 Units=m
New Line.LINE182_374 Bus1=182_365 Bus2=182_375 phases=3 Linecode=35_SAC_XSC Length=0.032016 Units=m
New Line.LINE182_379 Bus1=182_369 Bus2=182_380 phases=3 Linecode=3c_95_SAC_ASN Length=5.5087 Units=m
New Line.LINE182_385 Bus1=182_375 Bus2=182_386 phases=3 Linecode=35_SAC_XSC Length=0.031306 Units=m
New Line.LINE182_390 Bus1=182_380 Bus2=182_391 phases=3 Linecode=3c_95_SAC_ASN Length=0.68748 Units=m
New Line.LINE182_396 Bus1=182_386 Bus2=182_397 phases=3 Linecode=35_SAC_XSC Length=5.188 Units=m
New Line.LINE182_401 Bus1=182_391 Bus2=182_402 phases=3 Linecode=3c_95_SAC_ASN Length=1.7396 Units=m
New Line.LINE182_406 Bus1=182_397 Bus2=182_407 phases=3 Linecode=35_SAC_XSC Length=0.060083 Units=m
New Line.LINE182_408 Bus1=182_398 Bus2=182_409 phases=3 Linecode=4c_.1 Length=0.96883 Units=m
New Line.LINE182_412 Bus1=182_402 Bus2=182_413 phases=3 Linecode=3c_95_SAC_ASN Length=1.7834 Units=m
New Line.LINE182_416 Bus1=182_407 Bus2=182_417 phases=3 Linecode=35_SAC_XSC Length=0.05954 Units=m
New Line.LINE182_423 Bus1=182_413 Bus2=182_424 phases=3 Linecode=3c_95_SAC_ASN Length=2.6131 Units=m
New Line.LINE182_427 Bus1=182_417 Bus2=182_428 phases=3 Linecode=35_SAC_XSC Length=0.060306 Units=m
New Line.LINE182_433 Bus1=182_424 Bus2=182_434 phases=3 Linecode=3c_95_SAC_ASN Length=1.2589 Units=m
New Line.LINE182_437 Bus1=182_428 Bus2=182_438 phases=3 Linecode=35_SAC_XSC Length=0.059816 Units=m
New Line.LINE182_443 Bus1=182_434 Bus2=182_444 phases=3 Linecode=3c_95_SAC_ASN Length=1.1651 Units=m
New Line.LINE182_447 Bus1=182_438 Bus2=182_448 phases=3 Linecode=35_SAC_XSC Length=0.059942 Units=m
New Line.LINE182_453 Bus1=182_444 Bus2=182_454 phases=3 Linecode=3c_95_SAC_ASN Length=0.93901 Units=m
New Line.LINE182_458 Bus1=182_448 Bus2=182_459 phases=3 Linecode=35_SAC_XSC Length=0.059482 Units=m
New Line.LINE182_464 Bus1=182_454 Bus2=182_465 phases=3 Linecode=3c_95_SAC_ASN Length=4.1939 Units=m
New Line.LINE182_469 Bus1=182_459 Bus2=182_470 phases=3 Linecode=35_SAC_XSC Length=0.060298 Units=m
New Line.LINE182_475 Bus1=182_465 Bus2=182_476 phases=3 Linecode=3c_95_SAC_ASN Length=7.0907 Units=m
New Line.LINE182_480 Bus1=182_470 Bus2=182_481 phases=3 Linecode=35_SAC_XSC Length=0.059211 Units=m
New Line.LINE182_486 Bus1=182_476 Bus2=182_487 phases=3 Linecode=3c_95_SAC_ASN Length=3.4831 Units=m
New Line.LINE182_491 Bus1=182_481 Bus2=182_492 phases=3 Linecode=35_SAC_XSC Length=7.8066 Units=m
New Line.LINE182_497 Bus1=182_487 Bus2=182_498 phases=3 Linecode=3c_95_SAC_ASN Length=3.341 Units=m
New Line.LINE182_502 Bus1=182_492 Bus2=182_503 phases=3 Linecode=35_SAC_XSC Length=0.087281 Units=m
New Line.LINE182_508 Bus1=182_498 Bus2=182_509 phases=3 Linecode=2c_.0225 Length=0.13886 Units=m
New Line.LINE182_514 Bus1=182_503 Bus2=182_515 phases=3 Linecode=35_SAC_XSC Length=0.088119 Units=m
New Line.LINE182_520 Bus1=182_509 Bus2=182_521 phases=3 Linecode=2c_.0225 Length=0.15215 Units=m
New Line.LINE182_526 Bus1=182_515 Bus2=182_527 phases=3 Linecode=35_SAC_XSC Length=0.086833 Units=m
New Line.LINE182_532 Bus1=182_521 Bus2=182_533 phases=3 Linecode=2c_.0225 Length=0.10198 Units=m
New Line.LINE182_538 Bus1=182_527 Bus2=182_539 phases=3 Linecode=35_SAC_XSC Length=0.088528 Units=m
New Line.LINE182_544 Bus1=182_533 Bus2=182_545 phases=3 Linecode=2c_.0225 Length=13.5082 Units=m
New Line.LINE182_550 Bus1=182_539 Bus2=182_551 phases=3 Linecode=35_SAC_XSC Length=0.086608 Units=m
New Line.LINE182_556 Bus1=182_545 Bus2=182_557 phases=3 Linecode=2c_.0225 Length=0.24679 Units=m
New Line.LINE182_561 Bus1=182_550 Bus2=182_562 phases=3 Linecode=4c_.1 Length=0.24965 Units=m
New Line.LINE182_563 Bus1=182_551 Bus2=182_564 phases=3 Linecode=35_SAC_XSC Length=0.088021 Units=m
New Line.LINE182_570 Bus1=182_557 Bus2=182_571 phases=3 Linecode=2c_.0225 Length=3.0587 Units=m
New Line.LINE182_576 Bus1=182_562 Bus2=182_577 phases=3 Linecode=2c_.0225 Length=1.7761 Units=m
New Line.LINE182_578 Bus1=182_564 Bus2=182_579 phases=3 Linecode=35_SAC_XSC Length=0.086886 Units=m
New Line.LINE182_585 Bus1=182_571 Bus2=182_586 phases=3 Linecode=2c_.0225 Length=0.22008 Units=m
New Line.LINE182_590 Bus1=182_577 Bus2=182_591 phases=3 Linecode=2c_.0225 Length=0.51965 Units=m
New Line.LINE182_592 Bus1=182_579 Bus2=182_593 phases=3 Linecode=35_SAC_XSC Length=0.088023 Units=m
New Line.LINE182_600 Bus1=182_586 Bus2=182_601 phases=3 Linecode=2c_.0225 Length=0.45287 Units=m
New Line.LINE182_605 Bus1=182_590 Bus2=182_606 phases=3 Linecode=2c_.0225 Length=4.9432 Units=m
New Line.LINE182_606 Bus1=182_591 Bus2=182_607 phases=3 Linecode=2c_.0225 Length=0.59612 Units=m
New Line.LINE182_608 Bus1=182_593 Bus2=182_609 phases=3 Linecode=35_SAC_XSC Length=0.087131 Units=m
New Line.LINE182_615 Bus1=182_601 Bus2=182_616 phases=3 Linecode=2c_.0225 Length=0.086534 Units=m
New Line.LINE182_621 Bus1=182_607 Bus2=182_622 phases=3 Linecode=2c_.0225 Length=1.2376 Units=m
New Line.LINE182_623 Bus1=182_609 Bus2=182_624 phases=3 Linecode=35_SAC_XSC Length=0.087922 Units=m
New Line.LINE182_629 Bus1=182_616 Bus2=182_630 phases=3 Linecode=2c_.0225 Length=0.086266 Units=m
New Line.LINE182_634 Bus1=182_622 Bus2=182_635 phases=3 Linecode=2c_.0225 Length=0.61017 Units=m
New Line.LINE182_636 Bus1=182_624 Bus2=182_637 phases=3 Linecode=35_SAC_XSC Length=2.4352 Units=m
New Line.LINE182_642 Bus1=182_630 Bus2=182_643 phases=3 Linecode=2c_.0225 Length=0.063781 Units=m
New Line.LINE182_647 Bus1=182_635 Bus2=182_648 phases=3 Linecode=2c_.0225 Length=0.89609 Units=m
New Line.LINE182_649 Bus1=182_637 Bus2=182_650 phases=3 Linecode=35_SAC_XSC Length=0.049336 Units=m
New Line.LINE182_655 Bus1=182_643 Bus2=182_656 phases=3 Linecode=2c_.0225 Length=0.11205 Units=m
New Line.LINE182_660 Bus1=182_648 Bus2=182_661 phases=3 Linecode=2c_.0225 Length=0.66893 Units=m
New Line.LINE182_662 Bus1=182_650 Bus2=182_663 phases=3 Linecode=35_SAC_XSC Length=0.048765 Units=m
New Line.LINE182_668 Bus1=182_656 Bus2=182_669 phases=3 Linecode=2c_.0225 Length=0.092762 Units=m
New Line.LINE182_673 Bus1=182_661 Bus2=182_674 phases=3 Linecode=2c_.0225 Length=0.66592 Units=m
New Line.LINE182_675 Bus1=182_663 Bus2=182_676 phases=3 Linecode=35_SAC_XSC Length=0.04982 Units=m
New Line.LINE182_681 Bus1=182_669 Bus2=182_682 phases=3 Linecode=2c_.0225 Length=0.14512 Units=m
New Line.LINE182_686 Bus1=182_674 Bus2=182_687 phases=3 Linecode=2c_.0225 Length=1.1555 Units=m
New Line.LINE182_688 Bus1=182_676 Bus2=182_689 phases=3 Linecode=35_SAC_XSC Length=0.048918 Units=m
New Line.LINE182_694 Bus1=182_682 Bus2=182_695 phases=3 Linecode=2c_.0225 Length=0.11516 Units=m
New Line.LINE182_699 Bus1=182_687 Bus2=182_700 phases=3 Linecode=2c_.0225 Length=1.5979 Units=m
New Line.LINE182_701 Bus1=182_689 Bus2=182_702 phases=3 Linecode=35_SAC_XSC Length=0.049739 Units=m
New Line.LINE182_707 Bus1=182_695 Bus2=182_708 phases=3 Linecode=2c_.0225 Length=0.11562 Units=m
New Line.LINE182_711 Bus1=182_698 Bus2=182_712 phases=3 Linecode=35_SAC_PSC Length=4.553 Units=m
New Line.LINE182_713 Bus1=182_700 Bus2=182_714 phases=3 Linecode=2c_.0225 Length=2.913 Units=m
New Line.LINE182_715 Bus1=182_702 Bus2=182_716 phases=3 Linecode=35_SAC_XSC Length=0.048702 Units=m
New Line.LINE182_721 Bus1=182_708 Bus2=182_722 phases=3 Linecode=2c_.0225 Length=0.15212 Units=m
New Line.LINE182_726 Bus1=182_714 Bus2=182_727 phases=3 Linecode=2c_.0225 Length=2.258 Units=m
New Line.LINE182_728 Bus1=182_716 Bus2=182_729 phases=3 Linecode=35_SAC_XSC Length=0.048663 Units=m
New Line.LINE182_734 Bus1=182_722 Bus2=182_735 phases=3 Linecode=2c_.0225 Length=0.16344 Units=m
New Line.LINE182_739 Bus1=182_727 Bus2=182_740 phases=3 Linecode=2c_.0225 Length=0.17605 Units=m
New Line.LINE182_741 Bus1=182_729 Bus2=182_742 phases=3 Linecode=35_SAC_XSC Length=0.05 Units=m
New Line.LINE182_747 Bus1=182_735 Bus2=182_748 phases=3 Linecode=2c_.0225 Length=0.19483 Units=m
New Line.LINE182_751 Bus1=182_740 Bus2=182_752 phases=3 Linecode=2c_.0225 Length=0.14311 Units=m
New Line.LINE182_753 Bus1=182_742 Bus2=182_754 phases=3 Linecode=35_SAC_XSC Length=0.049032 Units=m
New Line.LINE182_758 Bus1=182_748 Bus2=182_759 phases=3 Linecode=2c_.0225 Length=0.14016 Units=m
New Line.LINE182_762 Bus1=182_752 Bus2=182_763 phases=3 Linecode=2c_.0225 Length=0.12869 Units=m
New Line.LINE182_764 Bus1=182_754 Bus2=182_765 phases=3 Linecode=35_SAC_XSC Length=0.048466 Units=m
New Line.LINE182_769 Bus1=182_759 Bus2=182_770 phases=3 Linecode=2c_.0225 Length=0.12259 Units=m
New Line.LINE182_771 Bus1=182_763 Bus2=182_772 phases=3 Linecode=2c_.0225 Length=0.12381 Units=m
New Line.LINE182_773 Bus1=182_765 Bus2=182_774 phases=3 Linecode=35_SAC_XSC Length=0.049396 Units=m
New Line.LINE182_778 Bus1=182_770 Bus2=182_779 phases=3 Linecode=2c_.0225 Length=0.13634 Units=m
New Line.LINE182_780 Bus1=182_772 Bus2=182_781 phases=3 Linecode=2c_.0225 Length=0.11831 Units=m
New Line.LINE182_782 Bus1=182_774 Bus2=182_783 phases=3 Linecode=35_SAC_XSC Length=0.048727 Units=m
New Line.LINE182_787 Bus1=182_779 Bus2=182_788 phases=3 Linecode=2c_.0225 Length=0.1192 Units=m
New Line.LINE182_788 Bus1=182_781 Bus2=182_789 phases=3 Linecode=2c_.0225 Length=0.11934 Units=m
New Line.LINE182_790 Bus1=182_783 Bus2=182_791 phases=3 Linecode=35_SAC_XSC Length=2.7036 Units=m
New Line.LINE182_795 Bus1=182_788 Bus2=182_796 phases=3 Linecode=2c_.0225 Length=0.14591 Units=m
New Line.LINE182_796 Bus1=182_789 Bus2=182_797 phases=3 Linecode=2c_.0225 Length=1.0862 Units=m
New Line.LINE182_802 Bus1=182_796 Bus2=182_803 phases=3 Linecode=2c_.0225 Length=0.2319 Units=m
New Line.LINE182_803 Bus1=182_797 Bus2=182_804 phases=3 Linecode=2c_.0225 Length=1.4055 Units=m
New Line.LINE182_809 Bus1=182_803 Bus2=182_810 phases=3 Linecode=2c_.0225 Length=0.21646 Units=m
New Line.LINE182_810 Bus1=182_804 Bus2=182_811 phases=3 Linecode=2c_.0225 Length=1.9041 Units=m
New Line.LINE182_816 Bus1=182_810 Bus2=182_817 phases=3 Linecode=2c_.0225 Length=0.15124 Units=m
New Line.LINE182_817 Bus1=182_811 Bus2=182_818 phases=3 Linecode=2c_.0225 Length=1.7776 Units=m
New Line.LINE182_823 Bus1=182_817 Bus2=182_824 phases=3 Linecode=2c_.0225 Length=0.13119 Units=m
New Line.LINE182_824 Bus1=182_818 Bus2=182_825 phases=3 Linecode=2c_.0225 Length=0.48061 Units=m
New Line.LINE182_830 Bus1=182_824 Bus2=182_831 phases=3 Linecode=2c_.0225 Length=0.1514 Units=m
New Line.LINE182_831 Bus1=182_825 Bus2=182_832 phases=3 Linecode=2c_.0225 Length=0.31501 Units=m
New Line.LINE182_837 Bus1=182_831 Bus2=182_838 phases=3 Linecode=2c_.0225 Length=0.15624 Units=m
New Line.LINE182_838 Bus1=182_832 Bus2=182_839 phases=3 Linecode=2c_.0225 Length=0.1543 Units=m
New Line.LINE182_842 Bus1=182_835 Bus2=182_843 phases=3 Linecode=2c_.0225 Length=2.3735 Units=m
New Line.LINE182_845 Bus1=182_838 Bus2=182_846 phases=3 Linecode=2c_.0225 Length=0.086052 Units=m
New Line.LINE182_846 Bus1=182_839 Bus2=182_847 phases=3 Linecode=2c_.0225 Length=0.41307 Units=m
New Line.LINE182_852 Bus1=182_846 Bus2=182_853 phases=3 Linecode=2c_.0225 Length=0.062651 Units=m
New Line.LINE182_853 Bus1=182_847 Bus2=182_854 phases=3 Linecode=2c_.0225 Length=0.19138 Units=m
New Line.LINE182_858 Bus1=182_853 Bus2=182_859 phases=3 Linecode=2c_.0225 Length=0.056603 Units=m
New Line.LINE182_859 Bus1=182_854 Bus2=182_860 phases=3 Linecode=2c_.0225 Length=0.14468 Units=m
New Line.LINE182_864 Bus1=182_859 Bus2=182_865 phases=3 Linecode=2c_.0225 Length=0.059808 Units=m
New Line.LINE182_865 Bus1=182_860 Bus2=182_866 phases=3 Linecode=2c_.0225 Length=0.057872 Units=m
New Line.LINE182_870 Bus1=182_865 Bus2=182_871 phases=3 Linecode=2c_.0225 Length=0.45287 Units=m
New Line.LINE182_871 Bus1=182_866 Bus2=182_872 phases=3 Linecode=2c_.0225 Length=0.077078 Units=m
New Line.LINE182_876 Bus1=182_871 Bus2=182_877 phases=3 Linecode=2c_.0225 Length=0.12456 Units=m
New Line.LINE182_877 Bus1=182_872 Bus2=182_878 phases=3 Linecode=2c_.0225 Length=0.23848 Units=m
New Line.LINE182_882 Bus1=182_877 Bus2=182_883 phases=3 Linecode=2c_.0225 Length=0.12297 Units=m
New Line.LINE182_883 Bus1=182_878 Bus2=182_884 phases=3 Linecode=2c_.0225 Length=0.35564 Units=m
New Line.LINE182_888 Bus1=182_883 Bus2=182_889 phases=3 Linecode=2c_.0225 Length=0.13813 Units=m
New Line.LINE182_889 Bus1=182_884 Bus2=182_890 phases=3 Linecode=2c_.0225 Length=0.16378 Units=m
New Line.LINE182_894 Bus1=182_889 Bus2=182_895 phases=3 Linecode=2c_.0225 Length=0.26249 Units=m
New Line.LINE182_895 Bus1=182_890 Bus2=182_896 phases=3 Linecode=2c_.0225 Length=0.15333 Units=m
New Line.LINE182_897 Bus1=182_891 Bus2=182_898 phases=3 Linecode=2c_.0225 Length=3.011 Units=m
New Line.LINE182_901 Bus1=182_895 Bus2=182_902 phases=3 Linecode=2c_.0225 Length=0.68832 Units=m
New Line.LINE182_902 Bus1=182_896 Bus2=182_903 phases=3 Linecode=2c_.0225 Length=0.13238 Units=m
New Line.LINE182_907 Bus1=182_902 Bus2=182_908 phases=3 Linecode=2c_.0225 Length=0.4842 Units=m
New Line.LINE182_908 Bus1=182_902 Bus2=182_909 phases=3 Linecode=2c_.0225 Length=0.4842 Units=m
New Line.LINE182_909 Bus1=182_903 Bus2=182_910 phases=3 Linecode=2c_.0225 Length=0.19388 Units=m
New Line.LINE182_914 Bus1=182_910 Bus2=182_915 phases=3 Linecode=2c_.0225 Length=0.15124 Units=m
New Line.LINE182_919 Bus1=182_914 Bus2=182_920 phases=3 Linecode=2c_.0225 Length=1.5746 Units=m
New Line.LINE182_920 Bus1=182_915 Bus2=182_921 phases=3 Linecode=2c_.0225 Length=0.1364 Units=m
New Line.LINE182_925 Bus1=182_921 Bus2=182_926 phases=3 Linecode=2c_.0225 Length=0.16494 Units=m
New Line.LINE182_930 Bus1=182_926 Bus2=182_931 phases=3 Linecode=2c_.0225 Length=0.068425 Units=m
New Line.LINE182_935 Bus1=182_931 Bus2=182_936 phases=3 Linecode=2c_.0225 Length=0.10536 Units=m
New Line.LINE182_940 Bus1=182_936 Bus2=182_941 phases=3 Linecode=2c_.0225 Length=0.112 Units=m
New Line.LINE182_944 Bus1=182_941 Bus2=182_945 phases=3 Linecode=2c_.0225 Length=0.11377 Units=m
New Line.LINE182_948 Bus1=182_945 Bus2=182_949 phases=3 Linecode=2c_.0225 Length=0.096768 Units=m
New Line.LINE182_952 Bus1=182_949 Bus2=182_953 phases=3 Linecode=2c_.0225 Length=0.10432 Units=m
New Line.LINE182_956 Bus1=182_953 Bus2=182_957 phases=3 Linecode=2c_.0225 Length=0.1022 Units=m
New Line.LINE182_960 Bus1=182_957 Bus2=182_961 phases=3 Linecode=2c_.0225 Length=0.078873 Units=m
New Line.LINE182_964 Bus1=182_961 Bus2=182_965 phases=3 Linecode=2c_.0225 Length=0.12324 Units=m
New Line.LINE182_968 Bus1=182_965 Bus2=182_969 phases=3 Linecode=2c_.0225 Length=0.1294 Units=m
New Line.LINE182_972 Bus1=182_969 Bus2=182_973 phases=3 Linecode=2c_.0225 Length=0.081492 Units=m
New Line.LINE182_976 Bus1=182_973 Bus2=182_977 phases=3 Linecode=2c_.0225 Length=0.10847 Units=m
New Line.LINE182_979 Bus1=182_977 Bus2=182_980 phases=3 Linecode=2c_.0225 Length=0.16379 Units=m
New Line.LINE182_982 Bus1=182_980 Bus2=182_983 phases=3 Linecode=2c_.0225 Length=0.24742 Units=m
New Line.LINE182_984 Bus1=182_983 Bus2=182_985 phases=3 Linecode=2c_.0225 Length=0.102 Units=m
New Line.LINE182_985 Bus1=182_985 Bus2=182_986 phases=3 Linecode=2c_.0225 Length=0.12307 Units=m
New Line.LINE182_986 Bus1=182_986 Bus2=182_987 phases=3 Linecode=2c_.0225 Length=0.15876 Units=m
New Line.LINE182_987 Bus1=182_987 Bus2=182_988 phases=3 Linecode=2c_.0225 Length=0.16033 Units=m
New Line.LINE182_988 Bus1=182_988 Bus2=182_989 phases=3 Linecode=2c_.0225 Length=0.32842 Units=m
New Line.LINE182_989 Bus1=182_989 Bus2=182_990 phases=3 Linecode=2c_.0225 Length=2.1052 Units=m
New Line.LINE182_Cmpd_0 Bus1=182_409 Bus2=182_835 phases=3 Linecode=2c_.0225 Length=21.369594 Units=m
New Line.LINE182_Cmpd_1 Bus1=182_27 Bus2=182_71 phases=3 Linecode=2c_.0225 Length=17.953091 Units=m
New Line.LINE182_Cmpd_2 Bus1=182_554 Bus2=182_975 phases=3 Linecode=2c_.0225 Length=22.670891 Units=m
New Line.LINE182_Cmpd_3 Bus1=182_398 Bus2=182_849 phases=3 Linecode=2c_.0225 Length=23.229518 Units=m
New Line.LINE182_Cmpd_4 Bus1=182_213 Bus2=182_332 phases=3 Linecode=4c_.1 Length=18.08961 Units=m
New Line.LINE182_Cmpd_5 Bus1=182_213 Bus2=182_550 phases=3 Linecode=4c_.1 Length=18.968626 Units=m
New Line.LINE182_Cmpd_6 Bus1=182_554 Bus2=182_914 phases=3 Linecode=2c_.0225 Length=18.84934 Units=m
New Line.LINE182_Cmpd_7 Bus1=182_550 Bus2=182_891 phases=3 Linecode=35_SAC_PC Length=24.024411 Units=m
New Line.LINE182_Cmpd_8 Bus1=182_182 Bus2=182_348 phases=3 Linecode=3c_.03_UA Length=2.176841 Units=m
New Line.LINE182_Cmpd_9 Bus1=182_835 Bus2=182_938 phases=3 Linecode=2c_.0225 Length=12.235976 Units=m
New Line.LINE182_Cmpd_10 Bus1=182_94 Bus2=182_239 phases=3 Linecode=2c_.0225 Length=36.646265 Units=m
New Line.LINE182_Cmpd_11 Bus1=182_891 Bus2=182_984 phases=3 Linecode=35_SAC_PC Length=9.889103 Units=m
New Line.LINE182_Cmpd_12 Bus1=182_348 Bus2=182_614 phases=3 Linecode=3c_.03_UA Length=17.62519 Units=m
New Line.LINE182_Cmpd_13 Bus1=182_94 Bus2=182_151 phases=3 Linecode=4c_.2 Length=17.08806 Units=m
New Line.LINE182_Cmpd_14 Bus1=182_444 Bus2=182_698 phases=3 Linecode=35_SAC_PSC Length=8.948486 Units=m
New Line.LINE182_Cmpd_15 Bus1=182_280 Bus2=182_514 phases=3 Linecode=35_SAC_XSC Length=24.166251 Units=m
New Line.LINE182_Cmpd_16 Bus1=182_348 Bus2=182_747 phases=3 Linecode=3c_.03_UA Length=25.692133 Units=m
New Line.LINE182_Cmpd_17 Bus1=182_27 Bus2=182_92 phases=3 Linecode=4c_.2 Length=40.560877 Units=m
New Line.LINE182_Cmpd_18 Bus1=182_590 Bus2=182_762 phases=3 Linecode=2c_.0225 Length=12.332518 Units=m
New Line.LINE182_Cmpd_19 Bus1=182_240 Bus2=182_405 phases=3 Linecode=35_SAC_XC Length=21.13875 Units=m
New Line.LINE182_Cmpd_20 Bus1=182_186 Bus2=182_398 phases=3 Linecode=4c_.1 Length=24.31577 Units=m
New Line.LINE182_Cmpd_21 Bus1=182_409 Bus2=182_554 phases=3 Linecode=4c_.1 Length=27.21871 Units=m
New Line.LINE182_Cmpd_22 Bus1=182_240 Bus2=182_280 phases=3 Linecode=4c_.1 Length=15.806124 Units=m
New Line.LINE182_Cmpd_23 Bus1=182_92 Bus2=182_189 phases=3 Linecode=25_SAC_PC Length=33.696208 Units=m
New Line.LINE182_Cmpd_24 Bus1=182_914 Bus2=182_982 phases=3 Linecode=2c_.0225 Length=11.31229 Units=m
New Line.LINE182_Cmpd_25 Bus1=182_332 Bus2=182_590 phases=3 Linecode=2c_.0225 Length=10.231621 Units=m
New Line.LINE182_Cmpd_26 Bus1=182_698 Bus2=182_780 phases=3 Linecode=35_SAC_PSC Length=9.5709 Units=m
New Line.LINE182_Cmpd_27 Bus1=182_151 Bus2=182_213 phases=3 Linecode=4c_.1 Length=8.41525 Units=m
New Line.LINE182_Cmpd_28 Bus1=182_1 Bus2=182_27 phases=3 Linecode=4c_.2 Length=47.061625 Units=m
New Line.LINE182_Cmpd_29 Bus1=182_151 Bus2=182_182 phases=3 Linecode=4c_.1 Length=19.6919 Units=m
New Line.LINE182_Cmpd_30 Bus1=182_189 Bus2=182_314 phases=3 Linecode=25_SAC_PC Length=13.386541 Units=m
New Line.LINE182_Cmpd_31 Bus1=182_186 Bus2=182_240 phases=3 Linecode=4c_.1 Length=28.0847 Units=m
