New Line.LINE182_1 Bus1=182_1 Bus2=182_2 phases=3 Linecode=4c_.2 Length=0.25591 Units=m
New Line.LINE182_2 Bus1=182_2 Bus2=182_3 phases=3 Linecode=4c_.2 Length=0.060441 Units=m
New Line.LINE182_3 Bus1=182_3 Bus2=182_4 phases=3 Linecode=4c_.2 Length=0.052631 Units=m
New Line.LINE182_4 Bus1=182_4 Bus2=182_5 phases=3 Linecode=4c_.2 Length=0.06127 Units=m
New Line.LINE182_5 Bus1=182_5 Bus2=182_6 phases=3 Linecode=4c_.2 Length=0.070036 Units=m
New Line.LINE182_6 Bus1=182_6 Bus2=182_7 phases=3 Linecode=4c_.2 Length=0.069354 Units=m
New Line.LINE182_7 Bus1=182_7 Bus2=182_8 phases=3 Linecode=4c_.2 Length=0.061684 Units=m
New Line.LINE182_8 Bus1=182_8 Bus2=182_9 phases=3 Linecode=4c_.2 Length=0.11406 Units=m
New Line.LINE182_9 Bus1=182_9 Bus2=182_10 phases=3 Linecode=4c_.2 Length=0.080529 Units=m
New Line.LINE182_10 Bus1=182_10 Bus2=182_11 phases=3 Linecode=4c_.2 Length=0.87039 Units=m
New Line.LINE182_11 Bus1=182_11 Bus2=182_12 phases=3 Linecode=4c_.2 Length=0.12125 Units=m
New Line.LINE182_12 Bus1=182_12 Bus2=182_13 phases=3 Linecode=4c_.2 Length=0.21672 Units=m
New Line.LINE182_13 Bus1=182_13 Bus2=182_14 phases=3 Linecode=4c_.2 Length=0.28601 Units=m
New Line.LINE182_14 Bus1=182_14 Bus2=182_15 phases=3 Linecode=4c_.2 Length=0.14328 Units=m
New Line.LINE182_15 Bus1=182_15 Bus2=182_16 phases=3 Linecode=4c_.2 Length=1.3787 Units=m
New Line.LINE182_16 Bus1=182_16 Bus2=182_17 phases=3 Linecode=4c_.2 Length=1.0114 Units=m
New Line.LINE182_17 Bus1=182_17 Bus2=182_18 phases=3 Linecode=4c_.2 Length=12.1562 Units=m
New Line.LINE182_18 Bus1=182_18 Bus2=182_19 phases=3 Linecode=4c_.2 Length=3.1046 Units=m
New Line.LINE182_19 Bus1=182_19 Bus2=182_20 phases=3 Linecode=4c_.2 Length=0.15731 Units=m
New Line.LINE182_20 Bus1=182_20 Bus2=182_21 phases=3 Linecode=4c_.2 Length=0.18572 Units=m
New Line.LINE182_21 Bus1=182_21 Bus2=182_22 phases=3 Linecode=4c_.2 Length=0.23386 Units=m
New Line.LINE182_22 Bus1=182_22 Bus2=182_23 phases=3 Linecode=4c_.2 Length=0.15207 Units=m
New Line.LINE182_23 Bus1=182_23 Bus2=182_24 phases=3 Linecode=4c_.2 Length=0.1227 Units=m
New Line.LINE182_24 Bus1=182_24 Bus2=182_25 phases=3 Linecode=4c_.2 Length=10.8694 Units=m
New Line.LINE182_25 Bus1=182_25 Bus2=182_26 phases=3 Linecode=4c_.2 Length=10.1694 Units=m
New Line.LINE182_26 Bus1=182_26 Bus2=182_27 phases=3 Linecode=4c_.2 Length=5.0567 Units=m
New Line.LINE182_27 Bus1=182_27 Bus2=182_28 phases=3 Linecode=2c_.0225 Length=0.45965 Units=m
New Line.LINE182_28 Bus1=182_27 Bus2=182_29 phases=3 Linecode=4c_.2 Length=1.2197 Units=m
New Line.LINE182_29 Bus1=182_28 Bus2=182_30 phases=3 Linecode=2c_.0225 Length=0.57032 Units=m
New Line.LINE182_30 Bus1=182_29 Bus2=182_31 phases=3 Linecode=4c_.2 Length=0.59917 Units=m
New Line.LINE182_31 Bus1=182_30 Bus2=182_32 phases=3 Linecode=2c_.0225 Length=1.3317 Units=m
New Line.LINE182_32 Bus1=182_31 Bus2=182_33 phases=3 Linecode=4c_.2 Length=0.54932 Units=m
New Line.LINE182_33 Bus1=182_32 Bus2=182_34 phases=3 Linecode=2c_.0225 Length=0.60938 Units=m
New Line.LINE182_34 Bus1=182_33 Bus2=182_35 phases=3 Linecode=4c_.2 Length=0.27067 Units=m
New Line.LINE182_35 Bus1=182_34 Bus2=182_36 phases=3 Linecode=2c_.0225 Length=0.45891 Units=m
New Line.LINE182_36 Bus1=182_35 Bus2=182_37 phases=3 Linecode=4c_.2 Length=0.43233 Units=m
New Line.LINE182_37 Bus1=182_36 Bus2=182_38 phases=3 Linecode=2c_.0225 Length=0.49961 Units=m
New Line.LINE182_38 Bus1=182_37 Bus2=182_39 phases=3 Linecode=4c_.2 Length=0.32472 Units=m
New Line.LINE182_39 Bus1=182_38 Bus2=182_40 phases=3 Linecode=2c_.0225 Length=1.5817 Units=m
New Line.LINE182_40 Bus1=182_39 Bus2=182_41 phases=3 Linecode=4c_.2 Length=0.4237 Units=m
New Line.LINE182_41 Bus1=182_40 Bus2=182_42 phases=3 Linecode=2c_.0225 Length=0.4401 Units=m
New Line.LINE182_42 Bus1=182_41 Bus2=182_43 phases=3 Linecode=4c_.2 Length=0.45042 Units=m
New Line.LINE182_43 Bus1=182_42 Bus2=182_44 phases=3 Linecode=2c_.0225 Length=0.40819 Units=m
New Line.LINE182_44 Bus1=182_43 Bus2=182_45 phases=3 Linecode=4c_.2 Length=0.97801 Units=m
New Line.LINE182_45 Bus1=182_44 Bus2=182_46 phases=3 Linecode=2c_.0225 Length=2.4525 Units=m
New Line.LINE182_46 Bus1=182_45 Bus2=182_47 phases=3 Linecode=4c_.2 Length=12.0274 Units=m
New Line.LINE182_47 Bus1=182_46 Bus2=182_48 phases=3 Linecode=2c_.0225 Length=0.57527 Units=m
New Line.LINE182_48 Bus1=182_47 Bus2=182_49 phases=3 Linecode=4c_.2 Length=5.1883 Units=m
New Line.LINE182_49 Bus1=182_48 Bus2=182_50 phases=3 Linecode=2c_.0225 Length=0.11857 Units=m
New Line.LINE182_50 Bus1=182_49 Bus2=182_51 phases=3 Linecode=4c_.2 Length=0.25387 Units=m
New Line.LINE182_51 Bus1=182_50 Bus2=182_52 phases=3 Linecode=2c_.0225 Length=4.0822 Units=m
New Line.LINE182_52 Bus1=182_51 Bus2=182_53 phases=3 Linecode=4c_.2 Length=0.38354 Units=m
New Line.LINE182_53 Bus1=182_52 Bus2=182_54 phases=3 Linecode=2c_.0225 Length=0.20471 Units=m
New Line.LINE182_54 Bus1=182_53 Bus2=182_55 phases=3 Linecode=4c_.2 Length=0.45397 Units=m
New Line.LINE182_55 Bus1=182_54 Bus2=182_56 phases=3 Linecode=2c_.0225 Length=0.28918 Units=m
New Line.LINE182_56 Bus1=182_55 Bus2=182_57 phases=3 Linecode=4c_.2 Length=0.52105 Units=m
New Line.LINE182_57 Bus1=182_56 Bus2=182_58 phases=3 Linecode=2c_.0225 Length=0.34905 Units=m
New Line.LINE182_58 Bus1=182_57 Bus2=182_59 phases=3 Linecode=4c_.2 Length=0.46967 Units=m
New Line.LINE182_59 Bus1=182_58 Bus2=182_60 phases=3 Linecode=2c_.0225 Length=0.34718 Units=m
New Line.LINE182_60 Bus1=182_59 Bus2=182_61 phases=3 Linecode=4c_.2 Length=0.95116 Units=m
New Line.LINE182_61 Bus1=182_60 Bus2=182_62 phases=3 Linecode=2c_.0225 Length=0.076218 Units=m
New Line.LINE182_62 Bus1=182_61 Bus2=182_63 phases=3 Linecode=4c_.2 Length=0.38014 Units=m
New Line.LINE182_63 Bus1=182_62 Bus2=182_64 phases=3 Linecode=2c_.0225 Length=0.084403 Units=m
New Line.LINE182_64 Bus1=182_63 Bus2=182_65 phases=3 Linecode=4c_.2 Length=0.46908 Units=m
New Line.LINE182_65 Bus1=182_64 Bus2=182_66 phases=3 Linecode=2c_.0225 Length=0.30951 Units=m
New Line.LINE182_66 Bus1=182_65 Bus2=182_67 phases=3 Linecode=4c_.2 Length=0.60923 Units=m
New Line.LINE182_67 Bus1=182_66 Bus2=182_68 phases=3 Linecode=2c_.0225 Length=2.2223 Units=m
New Line.LINE182_68 Bus1=182_67 Bus2=182_69 phases=3 Linecode=4c_.2 Length=1.4115 Units=m
New Line.LINE182_69 Bus1=182_68 Bus2=182_70 phases=3 Linecode=2c_.0225 Length=1.4087 Units=m
New Line.LINE182_70 Bus1=182_68 Bus2=182_71 phases=3 Linecode=2c_.0225 Length=0.48244 Units=m
New Line.LINE182_71 Bus1=182_69 Bus2=182_72 phases=3 Linecode=4c_.2 Length=0.042427 Units=m
New Line.LINE182_72 Bus1=182_70 Bus2=182_73 phases=3 Linecode=2c_.0225 Length=0.17051 Units=m
New Line.LINE182_73 Bus1=182_72 Bus2=182_74 phases=3 Linecode=4c_.2 Length=1.3018 Units=m
New Line.LINE182_74 Bus1=182_73 Bus2=182_75 phases=3 Linecode=2c_.0225 Length=0.1367 Units=m
New Line.LINE182_75 Bus1=182_74 Bus2=182_76 phases=3 Linecode=4c_.2 Length=0.52502 Units=m
New Line.LINE182_76 Bus1=182_75 Bus2=182_77 phases=3 Linecode=2c_.0225 Length=0.13642 Units=m
New Line.LINE182_77 Bus1=182_76 Bus2=182_78 phases=3 Linecode=4c_.2 Length=0.57368 Units=m
New Line.LINE182_78 Bus1=182_77 Bus2=182_79 phases=3 Linecode=2c_.0225 Length=0.22381 Units=m
New Line.LINE182_79 Bus1=182_78 Bus2=182_80 phases=3 Linecode=4c_.2 Length=1.1037 Units=m
New Line.LINE182_80 Bus1=182_79 Bus2=182_81 phases=3 Linecode=2c_.0225 Length=0.32846 Units=m
New Line.LINE182_81 Bus1=182_80 Bus2=182_82 phases=3 Linecode=4c_.2 Length=1.1095 Units=m
New Line.LINE182_82 Bus1=182_81 Bus2=182_83 phases=3 Linecode=2c_.0225 Length=5.2002 Units=m
New Line.LINE182_83 Bus1=182_82 Bus2=182_84 phases=3 Linecode=4c_.2 Length=1.4615 Units=m
New Line.LINE182_84 Bus1=182_83 Bus2=182_85 phases=3 Linecode=2c_.0225 Length=0.31235 Units=m
New Line.LINE182_85 Bus1=182_84 Bus2=182_86 phases=3 Linecode=4c_.2 Length=1.2954 Units=m
New Line.LINE182_86 Bus1=182_85 Bus2=182_87 phases=3 Linecode=2c_.0225 Length=0.53413 Units=m
New Line.LINE182_87 Bus1=182_86 Bus2=182_88 phases=3 Linecode=4c_.2 Length=1.5779 Units=m
New Line.LINE182_88 Bus1=182_87 Bus2=182_89 phases=3 Linecode=2c_.0225 Length=0.44829 Units=m
New Line.LINE182_89 Bus1=182_88 Bus2=182_90 phases=3 Linecode=4c_.2 Length=1.5662 Units=m
New Line.LINE182_90 Bus1=182_89 Bus2=182_91 phases=3 Linecode=2c_.0225 Length=1.0109 Units=m
New Line.LINE182_91 Bus1=182_90 Bus2=182_92 phases=3 Linecode=4c_.2 Length=1.6368 Units=m
New Line.LINE182_92 Bus1=182_92 Bus2=182_93 phases=3 Linecode=25_SAC_PC Length=0.18882 Units=m
New Line.LINE182_93 Bus1=182_92 Bus2=182_94 phases=3 Linecode=4c_.2 Length=1.2181 Units=m
New Line.LINE182_94 Bus1=182_93 Bus2=182_95 phases=3 Linecode=25_SAC_PC Length=0.084929 Units=m
New Line.LINE182_95 Bus1=182_94 Bus2=182_96 phases=3 Linecode=2c_.0225 Length=0.048977 Units=m
New Line.LINE182_96 Bus1=182_94 Bus2=182_97 phases=3 Linecode=4c_.2 Length=1.7462 Units=m
New Line.LINE182_97 Bus1=182_95 Bus2=182_98 phases=3 Linecode=25_SAC_PC Length=0.14567 Units=m
New Line.LINE182_98 Bus1=182_96 Bus2=182_99 phases=3 Linecode=2c_.0225 Length=0.079396 Units=m
New Line.LINE182_99 Bus1=182_97 Bus2=182_100 phases=3 Linecode=4c_.2 Length=1.0862 Units=m
New Line.LINE182_100 Bus1=182_98 Bus2=182_101 phases=3 Linecode=25_SAC_PC Length=0.090272 Units=m
New Line.LINE182_101 Bus1=182_99 Bus2=182_102 phases=3 Linecode=2c_.0225 Length=0.052354 Units=m
New Line.LINE182_102 Bus1=182_100 Bus2=182_103 phases=3 Linecode=4c_.2 Length=1.0241 Units=m
New Line.LINE182_103 Bus1=182_101 Bus2=182_104 phases=3 Linecode=25_SAC_PC Length=0.090078 Units=m
New Line.LINE182_104 Bus1=182_102 Bus2=182_105 phases=3 Linecode=2c_.0225 Length=0.046616 Units=m
New Line.LINE182_105 Bus1=182_103 Bus2=182_106 phases=3 Linecode=4c_.2 Length=1.0391 Units=m
New Line.LINE182_106 Bus1=182_104 Bus2=182_107 phases=3 Linecode=25_SAC_PC Length=0.13703 Units=m
New Line.LINE182_107 Bus1=182_105 Bus2=182_108 phases=3 Linecode=2c_.0225 Length=0.054745 Units=m
New Line.LINE182_108 Bus1=182_106 Bus2=182_109 phases=3 Linecode=4c_.2 Length=1.2112 Units=m
New Line.LINE182_109 Bus1=182_107 Bus2=182_110 phases=3 Linecode=25_SAC_PC Length=14.5995 Units=m
New Line.LINE182_110 Bus1=182_108 Bus2=182_111 phases=3 Linecode=2c_.0225 Length=0.044181 Units=m
New Line.LINE182_111 Bus1=182_109 Bus2=182_112 phases=3 Linecode=4c_.2 Length=1.3004 Units=m
New Line.LINE182_112 Bus1=182_110 Bus2=182_113 phases=3 Linecode=25_SAC_PC Length=0.44887 Units=m
New Line.LINE182_113 Bus1=182_111 Bus2=182_114 phases=3 Linecode=2c_.0225 Length=0.05954 Units=m
New Line.LINE182_114 Bus1=182_112 Bus2=182_115 phases=3 Linecode=4c_.2 Length=1.269 Units=m
New Line.LINE182_115 Bus1=182_113 Bus2=182_116 phases=3 Linecode=25_SAC_PC Length=0.17414 Units=m
New Line.LINE182_116 Bus1=182_114 Bus2=182_117 phases=3 Linecode=2c_.0225 Length=0.032249 Units=m
New Line.LINE182_117 Bus1=182_115 Bus2=182_118 phases=3 Linecode=4c_.2 Length=1.0793 Units=m
New Line.LINE182_118 Bus1=182_116 Bus2=182_119 phases=3 Linecode=25_SAC_PC Length=0.27389 Units=m
New Line.LINE182_119 Bus1=182_117 Bus2=182_120 phases=3 Linecode=2c_.0225 Length=0.047708 Units=m
New Line.LINE182_120 Bus1=182_118 Bus2=182_121 phases=3 Linecode=4c_.2 Length=1.1236 Units=m
New Line.LINE182_121 Bus1=182_119 Bus2=182_122 phases=3 Linecode=25_SAC_PC Length=0.19123 Units=m
New Line.LINE182_122 Bus1=182_120 Bus2=182_123 phases=3 Linecode=2c_.0225 Length=0.054672 Units=m
New Line.LINE182_123 Bus1=182_121 Bus2=182_124 phases=3 Linecode=4c_.2 Length=1.1511 Units=m
New Line.LINE182_124 Bus1=182_122 Bus2=182_125 phases=3 Linecode=25_SAC_PC Length=4.5319 Units=m
New Line.LINE182_125 Bus1=182_123 Bus2=182_126 phases=3 Linecode=2c_.0225 Length=0.041437 Units=m
New Line.LINE182_126 Bus1=182_124 Bus2=182_127 phases=3 Linecode=4c_.2 Length=0.52454 Units=m
New Line.LINE182_127 Bus1=182_125 Bus2=182_128 phases=3 Linecode=25_SAC_PC Length=0.36752 Units=m
New Line.LINE182_128 Bus1=182_126 Bus2=182_129 phases=3 Linecode=2c_.0225 Length=0.34647 Units=m
New Line.LINE182_129 Bus1=182_127 Bus2=182_130 phases=3 Linecode=4c_.2 Length=0.48093 Units=m
New Line.LINE182_130 Bus1=182_128 Bus2=182_131 phases=3 Linecode=25_SAC_PC Length=0.21893 Units=m
New Line.LINE182_131 Bus1=182_129 Bus2=182_132 phases=3 Linecode=2c_.0225 Length=14.3462 Units=m
New Line.LINE182_132 Bus1=182_130 Bus2=182_133 phases=3 Linecode=4c_.2 Length=0.48572 Units=m
New Line.LINE182_133 Bus1=182_131 Bus2=182_134 phases=3 Linecode=25_SAC_PC Length=0.18916 Units=m
New Line.LINE182_134 Bus1=182_132 Bus2=182_135 phases=3 Linecode=2c_.0225 Length=0.43684 Units=m
New Line.LINE182_135 Bus1=182_133 Bus2=182_136 phases=3 Linecode=4c_.2 Length=0.72681 Units=m
New Line.LINE182_136 Bus1=182_134 Bus2=182_137 phases=3 Linecode=25_SAC_PC Length=0.16462 Units=m
New Line.LINE182_137 Bus1=182_135 Bus2=182_138 phases=3 Linecode=2c_.0225 Length=0.15715 Units=m
New Line.LINE182_138 Bus1=182_136 Bus2=182_139 phases=3 Linecode=4c_.2 Length=0.61692 Units=m
New Line.LINE182_139 Bus1=182_137 Bus2=182_140 phases=3 Linecode=25_SAC_PC Length=0.17323 Units=m
New Line.LINE182_140 Bus1=182_138 Bus2=182_141 phases=3 Linecode=2c_.0225 Length=0.25279 Units=m
New Line.LINE182_141 Bus1=182_139 Bus2=182_142 phases=3 Linecode=4c_.2 Length=0.61759 Units=m
New Line.LINE182_142 Bus1=182_140 Bus2=182_143 phases=3 Linecode=25_SAC_PC Length=0.55567 Units=m
New Line.LINE182_143 Bus1=182_141 Bus2=182_144 phases=3 Linecode=2c_.0225 Length=0.173 Units=m
New Line.LINE182_144 Bus1=182_142 Bus2=182_145 phases=3 Linecode=4c_.2 Length=0.45176 Units=m
New Line.LINE182_145 Bus1=182_143 Bus2=182_146 phases=3 Linecode=25_SAC_PC Length=4.5667 Units=m
New Line.LINE182_146 Bus1=182_144 Bus2=182_147 phases=3 Linecode=2c_.0225 Length=4.6504 Units=m
New Line.LINE182_147 Bus1=182_145 Bus2=182_148 phases=3 Linecode=4c_.2 Length=0.57106 Units=m
New Line.LINE182_148 Bus1=182_146 Bus2=182_149 phases=3 Linecode=25_SAC_PC Length=0.555 Units=m
New Line.LINE182_149 Bus1=182_147 Bus2=182_150 phases=3 Linecode=2c_.0225 Length=0.24061 Units=m
New Line.LINE182_150 Bus1=182_148 Bus2=182_151 phases=3 Linecode=4c_.2 Length=0.58253 Units=m
New Line.LINE182_151 Bus1=182_149 Bus2=182_152 phases=3 Linecode=25_SAC_PC Length=0.51819 Units=m
New Line.LINE182_152 Bus1=182_150 Bus2=182_153 phases=3 Linecode=2c_.0225 Length=0.1593 Units=m
New Line.LINE182_153 Bus1=182_151 Bus2=182_154 phases=3 Linecode=4c_.1 Length=3.6546 Units=m
New Line.LINE182_154 Bus1=182_151 Bus2=182_155 phases=3 Linecode=4c_.1 Length=6.1956 Units=m
New Line.LINE182_155 Bus1=182_152 Bus2=182_156 phases=3 Linecode=25_SAC_PC Length=2.8588 Units=m
New Line.LINE182_156 Bus1=182_153 Bus2=182_157 phases=3 Linecode=2c_.0225 Length=0.20681 Units=m
New Line.LINE182_157 Bus1=182_154 Bus2=182_158 phases=3 Linecode=4c_.1 Length=1.7919 Units=m
New Line.LINE182_158 Bus1=182_155 Bus2=182_159 phases=3 Linecode=4c_.1 Length=0.40241 Units=m
New Line.LINE182_159 Bus1=182_156 Bus2=182_160 phases=3 Linecode=25_SAC_PC Length=0.3784 Units=m
New Line.LINE182_160 Bus1=182_157 Bus2=182_161 phases=3 Linecode=2c_.0225 Length=0.29574 Units=m
New Line.LINE182_161 Bus1=182_158 Bus2=182_162 phases=3 Linecode=4c_.1 Length=2.0488 Units=m
New Line.LINE182_162 Bus1=182_159 Bus2=182_163 phases=3 Linecode=4c_.1 Length=0.1529 Units=m
New Line.LINE182_163 Bus1=182_160 Bus2=182_164 phases=3 Linecode=25_SAC_PC Length=0.10547 Units=m
New Line.LINE182_164 Bus1=182_161 Bus2=182_165 phases=3 Linecode=2c_.0225 Length=0.38777 Units=m
New Line.LINE182_165 Bus1=182_162 Bus2=182_166 phases=3 Linecode=4c_.1 Length=2.0691 Units=m
New Line.LINE182_166 Bus1=182_163 Bus2=182_167 phases=3 Linecode=4c_.1 Length=0.13909 Units=m
New Line.LINE182_167 Bus1=182_164 Bus2=182_168 phases=3 Linecode=25_SAC_PC Length=0.097801 Units=m
New Line.LINE182_168 Bus1=182_165 Bus2=182_169 phases=3 Linecode=2c_.0225 Length=0.24007 Units=m
New Line.LINE182_169 Bus1=182_166 Bus2=182_170 phases=3 Linecode=4c_.1 Length=2.047 Units=m
New Line.LINE182_170 Bus1=182_167 Bus2=182_171 phases=3 Linecode=4c_.1 Length=0.18146 Units=m
New Line.LINE182_171 Bus1=182_168 Bus2=182_172 phases=3 Linecode=25_SAC_PC Length=0.072007 Units=m
New Line.LINE182_172 Bus1=182_169 Bus2=182_173 phases=3 Linecode=2c_.0225 Length=0.38422 Units=m
New Line.LINE182_173 Bus1=182_170 Bus2=182_174 phases=3 Linecode=4c_.1 Length=2.9235 Units=m
New Line.LINE182_174 Bus1=182_171 Bus2=182_175 phases=3 Linecode=4c_.1 Length=0.10966 Units=m
New Line.LINE182_175 Bus1=182_172 Bus2=182_176 phases=3 Linecode=25_SAC_PC Length=0.09 Units=m
New Line.LINE182_176 Bus1=182_173 Bus2=182_177 phases=3 Linecode=2c_.0225 Length=0.88626 Units=m
New Line.LINE182_177 Bus1=182_174 Bus2=182_178 phases=3 Linecode=4c_.1 Length=2.9753 Units=m
New Line.LINE182_178 Bus1=182_175 Bus2=182_179 phases=3 Linecode=4c_.1 Length=0.15546 Units=m
New Line.LINE182_179 Bus1=182_176 Bus2=182_180 phases=3 Linecode=25_SAC_PC Length=0.066121 Units=m
New Line.LINE182_180 Bus1=182_177 Bus2=182_181 phases=3 Linecode=2c_.0225 Length=1.6466 Units=m
New Line.LINE182_181 Bus1=182_178 Bus2=182_182 phases=3 Linecode=4c_.1 Length=2.1817 Units=m
New Line.LINE182_182 Bus1=182_179 Bus2=182_183 phases=3 Linecode=4c_.1 Length=0.131 Units=m
New Line.LINE182_183 Bus1=182_180 Bus2=182_184 phases=3 Linecode=25_SAC_PC Length=0.13366 Units=m
New Line.LINE182_184 Bus1=182_181 Bus2=182_185 phases=3 Linecode=2c_.0225 Length=1.6326 Units=m
New Line.LINE182_185 Bus1=182_182 Bus2=182_186 phases=3 Linecode=4c_.1 Length=2.6494 Units=m
New Line.LINE182_186 Bus1=182_182 Bus2=182_187 phases=3 Linecode=3c_.03_UA Length=0.079511 Units=m
New Line.LINE182_187 Bus1=182_183 Bus2=182_188 phases=3 Linecode=4c_.1 Length=0.14599 Units=m
New Line.LINE182_188 Bus1=182_184 Bus2=182_189 phases=3 Linecode=25_SAC_PC Length=1.6286 Units=m
New Line.LINE182_189 Bus1=182_185 Bus2=182_190 phases=3 Linecode=2c_.0225 Length=1.603 Units=m
New Line.LINE182_190 Bus1=182_186 Bus2=182_191 phases=3 Linecode=4c_.1 Length=6.1181 Units=m
New Line.LINE182_191 Bus1=182_186 Bus2=182_192 phases=3 Linecode=4c_.1 Length=0.11815 Units=m
New Line.LINE182_192 Bus1=182_187 Bus2=182_193 phases=3 Linecode=3c_.03_UA Length=0.039825 Units=m
New Line.LINE182_193 Bus1=182_188 Bus2=182_194 phases=3 Linecode=4c_.1 Length=0.20762 Units=m
New Line.LINE182_194 Bus1=182_189 Bus2=182_195 phases=3 Linecode=25_SAC_PC Length=1.6084 Units=m
New Line.LINE182_195 Bus1=182_189 Bus2=182_196 phases=3 Linecode=2c_.0225 Length=0.88352 Units=m
New Line.LINE182_196 Bus1=182_190 Bus2=182_197 phases=3 Linecode=2c_.0225 Length=1.2038 Units=m
New Line.LINE182_197 Bus1=182_191 Bus2=182_198 phases=3 Linecode=4c_.1 Length=3.2499 Units=m
New Line.LINE182_198 Bus1=182_192 Bus2=182_199 phases=3 Linecode=4c_.1 Length=0.060374 Units=m
New Line.LINE182_199 Bus1=182_193 Bus2=182_200 phases=3 Linecode=3c_.03_UA Length=0.047074 Units=m
New Line.LINE182_200 Bus1=182_194 Bus2=182_201 phases=3 Linecode=4c_.1 Length=0.17049 Units=m
New Line.LINE182_201 Bus1=182_195 Bus2=182_202 phases=3 Linecode=25_SAC_PC Length=0.13462 Units=m
New Line.LINE182_202 Bus1=182_197 Bus2=182_203 phases=3 Linecode=2c_.0225 Length=0.24435 Units=m
New Line.LINE182_203 Bus1=182_198 Bus2=182_204 phases=3 Linecode=4c_.1 Length=4.7648 Units=m
New Line.LINE182_204 Bus1=182_199 Bus2=182_205 phases=3 Linecode=4c_.1 Length=0.031385 Units=m
New Line.LINE182_205 Bus1=182_200 Bus2=182_206 phases=3 Linecode=3c_.03_UA Length=0.041 Units=m
New Line.LINE182_206 Bus1=182_201 Bus2=182_207 phases=3 Linecode=4c_.1 Length=0.21986 Units=m
New Line.LINE182_207 Bus1=182_202 Bus2=182_208 phases=3 Linecode=25_SAC_PC Length=0.066031 Units=m
New Line.LINE182_208 Bus1=182_203 Bus2=182_209 phases=3 Linecode=2c_.0225 Length=0.3216 Units=m
New Line.LINE182_209 Bus1=182_204 Bus2=182_210 phases=3 Linecode=4c_.1 Length=3.0159 Units=m
New Line.LINE182_210 Bus1=182_205 Bus2=182_211 phases=3 Linecode=4c_.1 Length=0.038328 Units=m
New Line.LINE182_211 Bus1=182_206 Bus2=182_212 phases=3 Linecode=3c_.03_UA Length=0.068963 Units=m
New Line.LINE182_212 Bus1=182_207 Bus2=182_213 phases=3 Linecode=4c_.1 Length=0.20371 Units=m
New Line.LINE182_213 Bus1=182_208 Bus2=182_214 phases=3 Linecode=25_SAC_PC Length=0.090272 Units=m
New Line.LINE182_214 Bus1=182_209 Bus2=182_215 phases=3 Linecode=2c_.0225 Length=0.306 Units=m
New Line.LINE182_215 Bus1=182_210 Bus2=182_216 phases=3 Linecode=4c_.1 Length=2.9027 Units=m
New Line.LINE182_216 Bus1=182_210 Bus2=182_217 phases=3 Linecode=4c_.1 Length=0.10526 Units=m
New Line.LINE182_217 Bus1=182_211 Bus2=182_218 phases=3 Linecode=4c_.1 Length=0.064 Units=m
New Line.LINE182_218 Bus1=182_212 Bus2=182_219 phases=3 Linecode=3c_.03_UA Length=0.06379 Units=m
New Line.LINE182_219 Bus1=182_213 Bus2=182_220 phases=3 Linecode=4c_.1 Length=1.2946 Units=m
New Line.LINE182_220 Bus1=182_213 Bus2=182_221 phases=3 Linecode=4c_.1 Length=0.30217 Units=m
New Line.LINE182_221 Bus1=182_214 Bus2=182_222 phases=3 Linecode=25_SAC_PC Length=0.072069 Units=m
New Line.LINE182_222 Bus1=182_215 Bus2=182_223 phases=3 Linecode=2c_.0225 Length=0.30321 Units=m
New Line.LINE182_223 Bus1=182_216 Bus2=182_224 phases=3 Linecode=4c_.1 Length=1.7493 Units=m
New Line.LINE182_224 Bus1=182_217 Bus2=182_225 phases=3 Linecode=4c_.1 Length=0.065855 Units=m
New Line.LINE182_225 Bus1=182_218 Bus2=182_226 phases=3 Linecode=4c_.1 Length=0.11908 Units=m
New Line.LINE182_226 Bus1=182_219 Bus2=182_227 phases=3 Linecode=3c_.03_UA Length=0.072124 Units=m
New Line.LINE182_227 Bus1=182_220 Bus2=182_228 phases=3 Linecode=4c_.1 Length=0.58293 Units=m
New Line.LINE182_228 Bus1=182_221 Bus2=182_229 phases=3 Linecode=4c_.1 Length=0.14948 Units=m
New Line.LINE182_229 Bus1=182_222 Bus2=182_230 phases=3 Linecode=25_SAC_PC Length=0.09731 Units=m
New Line.LINE182_230 Bus1=182_223 Bus2=182_231 phases=3 Linecode=2c_.0225 Length=1.732 Units=m
New Line.LINE182_231 Bus1=182_224 Bus2=182_232 phases=3 Linecode=4c_.1 Length=1.5502 Units=m
New Line.LINE182_232 Bus1=182_225 Bus2=182_233 phases=3 Linecode=4c_.1 Length=0.10187 Units=m
New Line.LINE182_233 Bus1=182_226 Bus2=182_234 phases=3 Linecode=4c_.1 Length=0.18788 Units=m
New Line.LINE182_234 Bus1=182_227 Bus2=182_235 phases=3 Linecode=3c_.03_UA Length=0.097673 Units=m
New Line.LINE182_235 Bus1=182_228 Bus2=182_236 phases=3 Linecode=4c_.1 Length=0.68923 Units=m
New Line.LINE182_236 Bus1=182_229 Bus2=182_237 phases=3 Linecode=4c_.1 Length=0.334 Units=m
New Line.LINE182_237 Bus1=182_230 Bus2=182_238 phases=3 Linecode=25_SAC_PC Length=0.10494 Units=m
New Line.LINE182_238 Bus1=182_231 Bus2=182_239 phases=3 Linecode=2c_.0225 Length=3.9276 Units=m
New Line.LINE182_239 Bus1=182_232 Bus2=182_240 phases=3 Linecode=4c_.1 Length=4.7338 Units=m
New Line.LINE182_240 Bus1=182_233 Bus2=182_241 phases=3 Linecode=4c_.1 Length=0.069051 Units=m
New Line.LINE182_241 Bus1=182_234 Bus2=182_242 phases=3 Linecode=4c_.1 Length=0.16617 Units=m
New Line.LINE182_242 Bus1=182_235 Bus2=182_243 phases=3 Linecode=3c_.03_UA Length=0.122 Units=m
New Line.LINE182_243 Bus1=182_236 Bus2=182_244 phases=3 Linecode=4c_.1 Length=0.74119 Units=m
New Line.LINE182_244 Bus1=182_237 Bus2=182_245 phases=3 Linecode=4c_.1 Length=0.25296 Units=m
New Line.LINE182_245 Bus1=182_238 Bus2=182_246 phases=3 Linecode=25_SAC_PC Length=0.087023 Units=m
New Line.LINE182_246 Bus1=182_240 Bus2=182_247 phases=3 Linecode=35_SAC_XC Length=0.18491 Units=m
New Line.LINE182_247 Bus1=182_240 Bus2=182_248 phases=3 Linecode=4c_.1 Length=0.046324 Units=m
New Line.LINE182_248 Bus1=182_241 Bus2=182_249 phases=3 Linecode=4c_.1 Length=0.079195 Units=m
New Line.LINE182_249 Bus1=182_242 Bus2=182_250 phases=3 Linecode=4c_.1 Length=0.19685 Units=m
New Line.LINE182_250 Bus1=182_243 Bus2=182_251 phases=3 Linecode=3c_.03_UA Length=0.14948 Units=m
New Line.LINE182_251 Bus1=182_244 Bus2=182_252 phases=3 Linecode=4c_.1 Length=0.87315 Units=m
New Line.LINE182_252 Bus1=182_245 Bus2=182_253 phases=3 Linecode=4c_.1 Length=0.17224 Units=m
New Line.LINE182_253 Bus1=182_246 Bus2=182_254 phases=3 Linecode=25_SAC_PC Length=0.096876 Units=m
New Line.LINE182_254 Bus1=182_247 Bus2=182_255 phases=3 Linecode=35_SAC_XC Length=0.74552 Units=m
New Line.LINE182_255 Bus1=182_248 Bus2=182_256 phases=3 Linecode=4c_.1 Length=1.8894 Units=m
New Line.LINE182_256 Bus1=182_249 Bus2=182_257 phases=3 Linecode=4c_.1 Length=0.069052 Units=m
New Line.LINE182_257 Bus1=182_250 Bus2=182_258 phases=3 Linecode=4c_.1 Length=0.20044 Units=m
New Line.LINE182_258 Bus1=182_251 Bus2=182_259 phases=3 Linecode=3c_.03_UA Length=0.097129 Units=m
New Line.LINE182_259 Bus1=182_252 Bus2=182_260 phases=3 Linecode=4c_.1 Length=1.489 Units=m
New Line.LINE182_260 Bus1=182_253 Bus2=182_261 phases=3 Linecode=4c_.1 Length=0.10253 Units=m
New Line.LINE182_261 Bus1=182_254 Bus2=182_262 phases=3 Linecode=25_SAC_PC Length=1.9594 Units=m
New Line.LINE182_262 Bus1=182_255 Bus2=182_263 phases=3 Linecode=35_SAC_XC Length=0.60073 Units=m
New Line.LINE182_263 Bus1=182_256 Bus2=182_264 phases=3 Linecode=4c_.1 Length=3.6554 Units=m
New Line.LINE182_264 Bus1=182_257 Bus2=182_265 phases=3 Linecode=4c_.1 Length=0.11245 Units=m
New Line.LINE182_265 Bus1=182_258 Bus2=182_266 phases=3 Linecode=4c_.1 Length=0.2033 Units=m
New Line.LINE182_266 Bus1=182_259 Bus2=182_267 phases=3 Linecode=3c_.03_UA Length=0.081271 Units=m
New Line.LINE182_267 Bus1=182_260 Bus2=182_268 phases=3 Linecode=4c_.1 Length=0.64146 Units=m
New Line.LINE182_268 Bus1=182_261 Bus2=182_269 phases=3 Linecode=4c_.1 Length=0.074947 Units=m
New Line.LINE182_269 Bus1=182_262 Bus2=182_270 phases=3 Linecode=25_SAC_PC Length=3.3893 Units=m
New Line.LINE182_270 Bus1=182_263 Bus2=182_271 phases=3 Linecode=35_SAC_XC Length=0.58809 Units=m
New Line.LINE182_271 Bus1=182_264 Bus2=182_272 phases=3 Linecode=4c_.1 Length=8.5317 Units=m
New Line.LINE182_272 Bus1=182_265 Bus2=182_273 phases=3 Linecode=4c_.1 Length=0.28456 Units=m
New Line.LINE182_273 Bus1=182_266 Bus2=182_274 phases=3 Linecode=4c_.1 Length=0.16111 Units=m
New Line.LINE182_274 Bus1=182_267 Bus2=182_275 phases=3 Linecode=3c_.03_UA Length=0.050803 Units=m
New Line.LINE182_275 Bus1=182_268 Bus2=182_276 phases=3 Linecode=4c_.1 Length=0.6265 Units=m
New Line.LINE182_276 Bus1=182_269 Bus2=182_277 phases=3 Linecode=4c_.1 Length=0.098955 Units=m
New Line.LINE182_277 Bus1=182_270 Bus2=182_278 phases=3 Linecode=25_SAC_PC Length=0.28706 Units=m
New Line.LINE182_278 Bus1=182_271 Bus2=182_279 phases=3 Linecode=35_SAC_XC Length=0.91552 Units=m
New Line.LINE182_279 Bus1=182_272 Bus2=182_280 phases=3 Linecode=4c_.1 Length=1.6833 Units=m
New Line.LINE182_280 Bus1=182_273 Bus2=182_281 phases=3 Linecode=4c_.1 Length=0.19148 Units=m
New Line.LINE182_281 Bus1=182_274 Bus2=182_282 phases=3 Linecode=4c_.1 Length=0.11711 Units=m
New Line.LINE182_282 Bus1=182_275 Bus2=182_283 phases=3 Linecode=3c_.03_UA Length=0.080498 Units=m
New Line.LINE182_283 Bus1=182_276 Bus2=182_284 phases=3 Linecode=4c_.1 Length=0.59775 Units=m
New Line.LINE182_284 Bus1=182_277 Bus2=182_285 phases=3 Linecode=4c_.1 Length=0.13282 Units=m
New Line.LINE182_285 Bus1=182_278 Bus2=182_286 phases=3 Linecode=25_SAC_PC Length=0.26291 Units=m
New Line.LINE182_286 Bus1=182_279 Bus2=182_287 phases=3 Linecode=35_SAC_XC Length=0.7805 Units=m
New Line.LINE182_287 Bus1=182_280 Bus2=182_288 phases=3 Linecode=35_SAC_XSC Length=0.25491 Units=m
New Line.LINE182_288 Bus1=182_280 Bus2=182_289 phases=3 Linecode=4c_.1 Length=3.9654 Units=m
New Line.LINE182_289 Bus1=182_281 Bus2=182_290 phases=3 Linecode=4c_.1 Length=0.29748 Units=m
New Line.LINE182_290 Bus1=182_282 Bus2=182_291 phases=3 Linecode=4c_.1 Length=0.086163 Units=m
New Line.LINE182_291 Bus1=182_283 Bus2=182_292 phases=3 Linecode=3c_.03_UA Length=0.13309 Units=m
New Line.LINE182_292 Bus1=182_284 Bus2=182_293 phases=3 Linecode=4c_.1 Length=1.3488 Units=m
New Line.LINE182_293 Bus1=182_285 Bus2=182_294 phases=3 Linecode=4c_.1 Length=0.11384 Units=m
New Line.LINE182_294 Bus1=182_286 Bus2=182_295 phases=3 Linecode=25_SAC_PC Length=0.21143 Units=m
New Line.LINE182_295 Bus1=182_287 Bus2=182_296 phases=3 Linecode=35_SAC_XC Length=6.7365 Units=m
New Line.LINE182_296 Bus1=182_288 Bus2=182_297 phases=3 Linecode=35_SAC_XSC Length=0.099247 Units=m
New Line.LINE182_297 Bus1=182_289 Bus2=182_298 phases=3 Linecode=4c_.1 Length=4.9005 Units=m
New Line.LINE182_298 Bus1=182_290 Bus2=182_299 phases=3 Linecode=4c_.1 Length=0.11819 Units=m
New Line.LINE182_299 Bus1=182_291 Bus2=182_300 phases=3 Linecode=4c_.1 Length=0.10102 Units=m
New Line.LINE182_300 Bus1=182_292 Bus2=182_301 phases=3 Linecode=3c_.03_UA Length=0.13297 Units=m
New Line.LINE182_301 Bus1=182_293 Bus2=182_302 phases=3 Linecode=4c_.1 Length=1.851 Units=m
New Line.LINE182_302 Bus1=182_294 Bus2=182_303 phases=3 Linecode=4c_.1 Length=0.119 Units=m
New Line.LINE182_303 Bus1=182_295 Bus2=182_304 phases=3 Linecode=25_SAC_PC Length=1.5856 Units=m
New Line.LINE182_304 Bus1=182_296 Bus2=182_305 phases=3 Linecode=35_SAC_XC Length=0.48812 Units=m
New Line.LINE182_305 Bus1=182_297 Bus2=182_306 phases=3 Linecode=35_SAC_XSC Length=0.099005 Units=m
New Line.LINE182_306 Bus1=182_298 Bus2=182_307 phases=3 Linecode=4c_.1 Length=0.69033 Units=m
New Line.LINE182_307 Bus1=182_298 Bus2=182_308 phases=3 Linecode=35_SAC_XSC Length=6.4564 Units=m
New Line.LINE182_308 Bus1=182_299 Bus2=182_309 phases=3 Linecode=4c_.1 Length=0.22611 Units=m
New Line.LINE182_309 Bus1=182_300 Bus2=182_310 phases=3 Linecode=4c_.1 Length=0.08387 Units=m
New Line.LINE182_310 Bus1=182_301 Bus2=182_311 phases=3 Linecode=3c_.03_UA Length=0.13822 Units=m
New Line.LINE182_311 Bus1=182_302 Bus2=182_312 phases=3 Linecode=4c_.1 Length=1.1145 Units=m
New Line.LINE182_312 Bus1=182_303 Bus2=182_313 phases=3 Linecode=4c_.1 Length=0.167 Units=m
New Line.LINE182_313 Bus1=182_304 Bus2=182_314 phases=3 Linecode=25_SAC_PC Length=3.3333 Units=m
New Line.LINE182_314 Bus1=182_305 Bus2=182_315 phases=3 Linecode=35_SAC_XC Length=0.23488 Units=m
New Line.LINE182_315 Bus1=182_306 Bus2=182_316 phases=3 Linecode=35_SAC_XSC Length=0.098183 Units=m
New Line.LINE182_316 Bus1=182_307 Bus2=182_317 phases=3 Linecode=4c_.1 Length=0.29824 Units=m
New Line.LINE182_317 Bus1=182_308 Bus2=182_318 phases=3 Linecode=35_SAC_XSC Length=0.20294 Units=m