New Line.LINE93 Bus1=92 Bus2=94 phases=3 Linecode=4c_.2 Length=1.2181 Units=m
New Line.LINE185 Bus1=182 Bus2=186 phases=3 Linecode=4c_.1 Length=2.6494 Units=m
New Line.LINE195 Bus1=189 Bus2=196 phases=3 Linecode=2c_.0225 Length=0.88352 Units=m
New Line.LINE288 Bus1=280 Bus2=289 phases=3 Linecode=4c_.1 Length=3.9654 Units=m
New Line.LINE297 Bus1=289 Bus2=298 phases=3 Linecode=4c_.1 Length=4.9005 Units=m
New Line.LINE307 Bus1=298 Bus2=308 phases=3 Linecode=35_SAC_XSC Length=6.4564 Units=m
New Line.LINE317 Bus1=308 Bus2=318 phases=3 Linecode=35_SAC_XSC Length=0.20294 Units=m
New Line.LINE327 Bus1=318 Bus2=328 phases=3 Linecode=35_SAC_XSC Length=0.032062 Units=m
New Line.LINE336 Bus1=328 Bus2=337 phases=3 Linecode=35_SAC_XSC Length=0.031401 Units=m
New Line.LINE339 Bus1=332 Bus2=340 phases=3 Linecode=4c_.1 Length=0.84246 Units=m
New Line.LINE345 Bus1=337 Bus2=346 phases=3 Linecode=35_SAC_XSC Length=0.031624 Units=m
New Line.LINE348 Bus1=340 Bus2=349 phases=3 Linecode=3c_95_SAC_ASN Length=5.5989 Units=m
New Line.LINE354 Bus1=346 Bus2=355 phases=3 Linecode=35_SAC_XSC Length=0.032249 Units=m
New Line.LINE358 Bus1=349 Bus2=359 phases=3 Linecode=3c_95_SAC_ASN Length=1.3863 Units=m
New Line.LINE364 Bus1=355 Bus2=365 phases=3 Linecode=35_SAC_XSC Length=0.03124 Units=m
New Line.LINE368 Bus1=359 Bus2=369 phases=3 Linecode=3c_95_SAC_ASN Length=0.85948 Units=m
New Line.LINE374 Bus1=365 Bus2=375 phases=3 Linecode=35_SAC_XSC Length=0.032016 Units=m
New Line.LINE379 Bus1=369 Bus2=380 phases=3 Linecode=3c_95_SAC_ASN Length=5.5087 Units=m
New Line.LINE385 Bus1=375 Bus2=386 phases=3 Linecode=35_SAC_XSC Length=0.031306 Units=m
New Line.LINE390 Bus1=380 Bus2=391 phases=3 Linecode=3c_95_SAC_ASN Length=0.68748 Units=m
New Line.LINE396 Bus1=386 Bus2=397 phases=3 Linecode=35_SAC_XSC Length=5.188 Units=m
New Line.LINE401 Bus1=391 Bus2=402 phases=3 Linecode=3c_95_SAC_ASN Length=1.7396 Units=m
New Line.LINE406 Bus1=397 Bus2=407 phases=3 Linecode=35_SAC_XSC Length=0.060083 Units=m
New Line.LINE408 Bus1=398 Bus2=409 phases=3 Linecode=4c_.1 Length=0.96883 Units=m
New Line.LINE412 Bus1=402 Bus2=413 phases=3 Linecode=3c_95_SAC_ASN Length=1.7834 Units=m
New Line.LINE416 Bus1=407 Bus2=417 phases=3 Linecode=35_SAC_XSC Length=0.05954 Units=m
New Line.LINE423 Bus1=413 Bus2=424 phases=3 Linecode=3c_95_SAC_ASN Length=2.6131 Units=m
New Line.LINE427 Bus1=417 Bus2=428 phases=3 Linecode=35_SAC_XSC Length=0.060306 Units=m
New Line.LINE433 Bus1=424 Bus2=434 phases=3 Linecode=3c_95_SAC_ASN Length=1.2589 Units=m
New Line.LINE437 Bus1=428 Bus2=438 phases=3 Linecode=35_SAC_XSC Length=0.059816 Units=m
New Line.LINE443 Bus1=434 Bus2=444 phases=3 Linecode=3c_95_SAC_ASN Length=1.1651 Units=m
New Line.LINE447 Bus1=438 Bus2=448 phases=3 Linecode=35_SAC_XSC Length=0.059942 Units=m
New Line.LINE453 Bus1=444 Bus2=454 phases=3 Linecode=3c_95_SAC_ASN Length=0.93901 Units=m
New Line.LINE458 Bus1=448 Bus2=459 phases=3 Linecode=35_SAC_XSC Length=0.059482 Units=m
New Line.LINE464 Bus1=454 Bus2=465 phases=3 Linecode=3c_95_SAC_ASN Length=4.1939 Units=m
New Line.LINE469 Bus1=459 Bus2=470 phases=3 Linecode=35_SAC_XSC Length=0.060298 Units=m
New Line.LINE475 Bus1=465 Bus2=476 phases=3 Linecode=3c_95_SAC_ASN Length=7.0907 Units=m
New Line.LINE480 Bus1=470 Bus2=481 phases=3 Linecode=35_SAC_XSC Length=0.059211 Units=m
New Line.LINE486 Bus1=476 Bus2=487 phases=3 Linecode=3c_95_SAC_ASN Length=3.4831 Units=m
New Line.LINE491 Bus1=481 Bus2=492 phases=3 Linecode=35_SAC_XSC Length=7.8066 Units=m
New Line.LINE497 Bus1=487 Bus2=498 phases=3 Linecode=3c_95_SAC_ASN Length=3.341 Units=m
New Line.LINE502 Bus1=492 Bus2=503 phases=3 Linecode=35_SAC_XSC Length=0.087281 Units=m
New Line.LINE508 Bus1=498 Bus2=509 phases=3 Linecode=2c_.0225 Length=0.13886 Units=m
New Line.LINE514 Bus1=503 Bus2=515 phases=3 Linecode=35_SAC_XSC Length=0.088119 Units=m
New Line.LINE520 Bus1=509 Bus2=521 phases=3 Linecode=2c_.0225 Length=0.15215 Units=m
New Line.LINE526 Bus1=515 Bus2=527 phases=3 Linecode=35_SAC_XSC Length=0.086833 Units=m
New Line.LINE532 Bus1=521 Bus2=533 phases=3 Linecode=2c_.0225 Length=0.10198 Units=m
New Line.LINE538 Bus1=527 Bus2=539 phases=3 Linecode=35_SAC_XSC Length=0.088528 Units=m
New Line.LINE544 Bus1=533 Bus2=545 phases=3 Linecode=2c_.0225 Length=13.5082 Units=m
New Line.LINE550 Bus1=539 Bus2=551 phases=3 Linecode=35_SAC_XSC Length=0.086608 Units=m
New Line.LINE556 Bus1=545 Bus2=557 phases=3 Linecode=2c_.0225 Length=0.24679 Units=m
New Line.LINE561 Bus1=550 Bus2=562 phases=3 Linecode=4c_.1 Length=0.24965 Units=m
New Line.LINE563 Bus1=551 Bus2=564 phases=3 Linecode=35_SAC_XSC Length=0.088021 Units=m
New Line.LINE570 Bus1=557 Bus2=571 phases=3 Linecode=2c_.0225 Length=3.0587 Units=m
New Line.LINE576 Bus1=562 Bus2=577 phases=3 Linecode=2c_.0225 Length=1.7761 Units=m
New Line.LINE578 Bus1=564 Bus2=579 phases=3 Linecode=35_SAC_XSC Length=0.086886 Units=m
New Line.LINE585 Bus1=571 Bus2=586 phases=3 Linecode=2c_.0225 Length=0.22008 Units=m
New Line.LINE590 Bus1=577 Bus2=591 phases=3 Linecode=2c_.0225 Length=0.51965 Units=m
New Line.LINE592 Bus1=579 Bus2=593 phases=3 Linecode=35_SAC_XSC Length=0.088023 Units=m
New Line.LINE600 Bus1=586 Bus2=601 phases=3 Linecode=2c_.0225 Length=0.45287 Units=m
New Line.LINE605 Bus1=590 Bus2=606 phases=3 Linecode=2c_.0225 Length=4.9432 Units=m
New Line.LINE606 Bus1=591 Bus2=607 phases=3 Linecode=2c_.0225 Length=0.59612 Units=m
New Line.LINE608 Bus1=593 Bus2=609 phases=3 Linecode=35_SAC_XSC Length=0.087131 Units=m
New Line.LINE615 Bus1=601 Bus2=616 phases=3 Linecode=2c_.0225 Length=0.086534 Units=m
New Line.LINE621 Bus1=607 Bus2=622 phases=3 Linecode=2c_.0225 Length=1.2376 Units=m
New Line.LINE623 Bus1=609 Bus2=624 phases=3 Linecode=35_SAC_XSC Length=0.087922 Units=m
New Line.LINE629 Bus1=616 Bus2=630 phases=3 Linecode=2c_.0225 Length=0.086266 Units=m
New Line.LINE634 Bus1=622 Bus2=635 phases=3 Linecode=2c_.0225 Length=0.61017 Units=m
New Line.LINE636 Bus1=624 Bus2=637 phases=3 Linecode=35_SAC_XSC Length=2.4352 Units=m
New Line.LINE642 Bus1=630 Bus2=643 phases=3 Linecode=2c_.0225 Length=0.063781 Units=m
New Line.LINE647 Bus1=635 Bus2=648 phases=3 Linecode=2c_.0225 Length=0.89609 Units=m
New Line.LINE649 Bus1=637 Bus2=650 phases=3 Linecode=35_SAC_XSC Length=0.049336 Units=m
New Line.LINE655 Bus1=643 Bus2=656 phases=3 Linecode=2c_.0225 Length=0.11205 Units=m
New Line.LINE660 Bus1=648 Bus2=661 phases=3 Linecode=2c_.0225 Length=0.66893 Units=m
New Line.LINE662 Bus1=650 Bus2=663 phases=3 Linecode=35_SAC_XSC Length=0.048765 Units=m
New Line.LINE668 Bus1=656 Bus2=669 phases=3 Linecode=2c_.0225 Length=0.092762 Units=m
New Line.LINE673 Bus1=661 Bus2=674 phases=3 Linecode=2c_.0225 Length=0.66592 Units=m
New Line.LINE675 Bus1=663 Bus2=676 phases=3 Linecode=35_SAC_XSC Length=0.04982 Units=m
New Line.LINE681 Bus1=669 Bus2=682 phases=3 Linecode=2c_.0225 Length=0.14512 Units=m
New Line.LINE686 Bus1=674 Bus2=687 phases=3 Linecode=2c_.0225 Length=1.1555 Units=m
New Line.LINE688 Bus1=676 Bus2=689 phases=3 Linecode=35_SAC_XSC Length=0.048918 Units=m
New Line.LINE694 Bus1=682 Bus2=695 phases=3 Linecode=2c_.0225 Length=0.11516 Units=m
New Line.LINE699 Bus1=687 Bus2=700 phases=3 Linecode=2c_.0225 Length=1.5979 Units=m
New Line.LINE701 Bus1=689 Bus2=702 phases=3 Linecode=35_SAC_XSC Length=0.049739 Units=m
New Line.LINE707 Bus1=695 Bus2=708 phases=3 Linecode=2c_.0225 Length=0.11562 Units=m
New Line.LINE711 Bus1=698 Bus2=712 phases=3 Linecode=35_SAC_PSC Length=4.553 Units=m
New Line.LINE713 Bus1=700 Bus2=714 phases=3 Linecode=2c_.0225 Length=2.913 Units=m
New Line.LINE715 Bus1=702 Bus2=716 phases=3 Linecode=35_SAC_XSC Length=0.048702 Units=m
New Line.LINE721 Bus1=708 Bus2=722 phases=3 Linecode=2c_.0225 Length=0.15212 Units=m
New Line.LINE726 Bus1=714 Bus2=727 phases=3 Linecode=2c_.0225 Length=2.258 Units=m
New Line.LINE728 Bus1=716 Bus2=729 phases=3 Linecode=35_SAC_XSC Length=0.048663 Units=m
New Line.LINE734 Bus1=722 Bus2=735 phases=3 Linecode=2c_.0225 Length=0.16344 Units=m
New Line.LINE739 Bus1=727 Bus2=740 phases=3 Linecode=2c_.0225 Length=0.17605 Units=m
New Line.LINE741 Bus1=729 Bus2=742 phases=3 Linecode=35_SAC_XSC Length=0.05 Units=m
New Line.LINE747 Bus1=735 Bus2=748 phases=3 Linecode=2c_.0225 Length=0.19483 Units=m
New Line.LINE751 Bus1=740 Bus2=752 phases=3 Linecode=2c_.0225 Length=0.14311 Units=m
New Line.LINE753 Bus1=742 Bus2=754 phases=3 Linecode=35_SAC_XSC Length=0.049032 Units=m
New Line.LINE758 Bus1=748 Bus2=759 phases=3 Linecode=2c_.0225 Length=0.14016 Units=m
New Line.LINE762 Bus1=752 Bus2=763 phases=3 Linecode=2c_.0225 Length=0.12869 Units=m
New Line.LINE764 Bus1=754 Bus2=765 phases=3 Linecode=35_SAC_XSC Length=0.048466 Units=m
New Line.LINE769 Bus1=759 Bus2=770 phases=3 Linecode=2c_.0225 Length=0.12259 Units=m
New Line.LINE771 Bus1=763 Bus2=772 phases=3 Linecode=2c_.0225 Length=0.12381 Units=m
New Line.LINE773 Bus1=765 Bus2=774 phases=3 Linecode=35_SAC_XSC Length=0.049396 Units=m
New Line.LINE778 Bus1=770 Bus2=779 phases=3 Linecode=2c_.0225 Length=0.13634 Units=m
New Line.LINE780 Bus1=772 Bus2=781 phases=3 Linecode=2c_.0225 Length=0.11831 Units=m
New Line.LINE782 Bus1=774 Bus2=783 phases=3 Linecode=35_SAC_XSC Length=0.048727 Units=m
New Line.LINE787 Bus1=779 Bus2=788 phases=3 Linecode=2c_.0225 Length=0.1192 Units=m
New Line.LINE788 Bus1=781 Bus2=789 phases=3 Linecode=2c_.0225 Length=0.11934 Units=m
New Line.LINE790 Bus1=783 Bus2=791 phases=3 Linecode=35_SAC_XSC Length=2.7036 Units=m
New Line.LINE795 Bus1=788 Bus2=796 phases=3 Linecode=2c_.0225 Length=0.14591 Units=m
New Line.LINE796 Bus1=789 Bus2=797 phases=3 Linecode=2c_.0225 Length=1.0862 Units=m
New Line.LINE802 Bus1=796 Bus2=803 phases=3 Linecode=2c_.0225 Length=0.2319 Units=m
New Line.LINE803 Bus1=797 Bus2=804 phases=3 Linecode=2c_.0225 Length=1.4055 Units=m
New Line.LINE809 Bus1=803 Bus2=810 phases=3 Linecode=2c_.0225 Length=0.21646 Units=m
New Line.LINE810 Bus1=804 Bus2=811 phases=3 Linecode=2c_.0225 Length=1.9041 Units=m
New Line.LINE816 Bus1=810 Bus2=817 phases=3 Linecode=2c_.0225 Length=0.15124 Units=m
New Line.LINE817 Bus1=811 Bus2=818 phases=3 Linecode=2c_.0225 Length=1.7776 Units=m
New Line.LINE823 Bus1=817 Bus2=824 phases=3 Linecode=2c_.0225 Length=0.13119 Units=m
New Line.LINE824 Bus1=818 Bus2=825 phases=3 Linecode=2c_.0225 Length=0.48061 Units=m
New Line.LINE830 Bus1=824 Bus2=831 phases=3 Linecode=2c_.0225 Length=0.1514 Units=m
New Line.LINE831 Bus1=825 Bus2=832 phases=3 Linecode=2c_.0225 Length=0.31501 Units=m
New Line.LINE837 Bus1=831 Bus2=838 phases=3 Linecode=2c_.0225 Length=0.15624 Units=m
New Line.LINE838 Bus1=832 Bus2=839 phases=3 Linecode=2c_.0225 Length=0.1543 Units=m
New Line.LINE842 Bus1=835 Bus2=843 phases=3 Linecode=2c_.0225 Length=2.3735 Units=m
New Line.LINE845 Bus1=838 Bus2=846 phases=3 Linecode=2c_.0225 Length=0.086052 Units=m
New Line.LINE846 Bus1=839 Bus2=847 phases=3 Linecode=2c_.0225 Length=0.41307 Units=m
New Line.LINE852 Bus1=846 Bus2=853 phases=3 Linecode=2c_.0225 Length=0.062651 Units=m
New Line.LINE853 Bus1=847 Bus2=854 phases=3 Linecode=2c_.0225 Length=0.19138 Units=m
New Line.LINE858 Bus1=853 Bus2=859 phases=3 Linecode=2c_.0225 Length=0.056603 Units=m
New Line.LINE859 Bus1=854 Bus2=860 phases=3 Linecode=2c_.0225 Length=0.14468 Units=m
New Line.LINE864 Bus1=859 Bus2=865 phases=3 Linecode=2c_.0225 Length=0.059808 Units=m
New Line.LINE865 Bus1=860 Bus2=866 phases=3 Linecode=2c_.0225 Length=0.057872 Units=m
New Line.LINE870 Bus1=865 Bus2=871 phases=3 Linecode=2c_.0225 Length=0.45287 Units=m
New Line.LINE871 Bus1=866 Bus2=872 phases=3 Linecode=2c_.0225 Length=0.077078 Units=m
New Line.LINE876 Bus1=871 Bus2=877 phases=3 Linecode=2c_.0225 Length=0.12456 Units=m
New Line.LINE877 Bus1=872 Bus2=878 phases=3 Linecode=2c_.0225 Length=0.23848 Units=m
New Line.LINE882 Bus1=877 Bus2=883 phases=3 Linecode=2c_.0225 Length=0.12297 Units=m
New Line.LINE883 Bus1=878 Bus2=884 phases=3 Linecode=2c_.0225 Length=0.35564 Units=m
New Line.LINE888 Bus1=883 Bus2=889 phases=3 Linecode=2c_.0225 Length=0.13813 Units=m
New Line.LINE889 Bus1=884 Bus2=890 phases=3 Linecode=2c_.0225 Length=0.16378 Units=m
New Line.LINE894 Bus1=889 Bus2=895 phases=3 Linecode=2c_.0225 Length=0.26249 Units=m
New Line.LINE895 Bus1=890 Bus2=896 phases=3 Linecode=2c_.0225 Length=0.15333 Units=m
New Line.LINE897 Bus1=891 Bus2=898 phases=3 Linecode=2c_.0225 Length=3.011 Units=m
New Line.LINE901 Bus1=895 Bus2=902 phases=3 Linecode=2c_.0225 Length=0.68832 Units=m
New Line.LINE902 Bus1=896 Bus2=903 phases=3 Linecode=2c_.0225 Length=0.13238 Units=m
New Line.LINE907 Bus1=902 Bus2=908 phases=3 Linecode=2c_.0225 Length=0.4842 Units=m
New Line.LINE908 Bus1=902 Bus2=909 phases=3 Linecode=2c_.0225 Length=0.4842 Units=m
New Line.LINE909 Bus1=903 Bus2=910 phases=3 Linecode=2c_.0225 Length=0.19388 Units=m
New Line.LINE914 Bus1=910 Bus2=915 phases=3 Linecode=2c_.0225 Length=0.15124 Units=m
New Line.LINE919 Bus1=914 Bus2=920 phases=3 Linecode=2c_.0225 Length=1.5746 Units=m
New Line.LINE920 Bus1=915 Bus2=921 phases=3 Linecode=2c_.0225 Length=0.1364 Units=m
New Line.LINE925 Bus1=921 Bus2=926 phases=3 Linecode=2c_.0225 Length=0.16494 Units=m
New Line.LINE930 Bus1=926 Bus2=931 phases=3 Linecode=2c_.0225 Length=0.068425 Units=m
New Line.LINE935 Bus1=931 Bus2=936 phases=3 Linecode=2c_.0225 Length=0.10536 Units=m
New Line.LINE940 Bus1=936 Bus2=941 phases=3 Linecode=2c_.0225 Length=0.112 Units=m
New Line.LINE944 Bus1=941 Bus2=945 phases=3 Linecode=2c_.0225 Length=0.11377 Units=m
New Line.LINE948 Bus1=945 Bus2=949 phases=3 Linecode=2c_.0225 Length=0.096768 Units=m
New Line.LINE952 Bus1=949 Bus2=953 phases=3 Linecode=2c_.0225 Length=0.10432 Units=m
New Line.LINE956 Bus1=953 Bus2=957 phases=3 Linecode=2c_.0225 Length=0.1022 Units=m
New Line.LINE960 Bus1=957 Bus2=961 phases=3 Linecode=2c_.0225 Length=0.078873 Units=m
New Line.LINE964 Bus1=961 Bus2=965 phases=3 Linecode=2c_.0225 Length=0.12324 Units=m
New Line.LINE968 Bus1=965 Bus2=969 phases=3 Linecode=2c_.0225 Length=0.1294 Units=m
New Line.LINE972 Bus1=969 Bus2=973 phases=3 Linecode=2c_.0225 Length=0.081492 Units=m
New Line.LINE976 Bus1=973 Bus2=977 phases=3 Linecode=2c_.0225 Length=0.10847 Units=m
New Line.LINE979 Bus1=977 Bus2=980 phases=3 Linecode=2c_.0225 Length=0.16379 Units=m
New Line.LINE982 Bus1=980 Bus2=983 phases=3 Linecode=2c_.0225 Length=0.24742 Units=m
New Line.LINE984 Bus1=983 Bus2=985 phases=3 Linecode=2c_.0225 Length=0.102 Units=m
New Line.LINE985 Bus1=985 Bus2=986 phases=3 Linecode=2c_.0225 Length=0.12307 Units=m
New Line.LINE986 Bus1=986 Bus2=987 phases=3 Linecode=2c_.0225 Length=0.15876 Units=m
New Line.LINE987 Bus1=987 Bus2=988 phases=3 Linecode=2c_.0225 Length=0.16033 Units=m
New Line.LINE988 Bus1=988 Bus2=989 phases=3 Linecode=2c_.0225 Length=0.32842 Units=m
New Line.LINE989 Bus1=989 Bus2=990 phases=3 Linecode=2c_.0225 Length=2.1052 Units=m
New Line.LINECmpd_0 Bus1=409 Bus2=835 phases=3 Linecode=2c_.0225 Length=21.369594 Units=m
New Line.LINECmpd_1 Bus1=27 Bus2=71 phases=3 Linecode=2c_.0225 Length=17.953091 Units=m
New Line.LINECmpd_2 Bus1=554 Bus2=975 phases=3 Linecode=2c_.0225 Length=22.670891 Units=m
New Line.LINECmpd_3 Bus1=398 Bus2=849 phases=3 Linecode=2c_.0225 Length=23.229518 Units=m
New Line.LINECmpd_4 Bus1=213 Bus2=332 phases=3 Linecode=4c_.1 Length=18.08961 Units=m
New Line.LINECmpd_5 Bus1=213 Bus2=550 phases=3 Linecode=4c_.1 Length=18.968626 Units=m
New Line.LINECmpd_6 Bus1=554 Bus2=914 phases=3 Linecode=2c_.0225 Length=18.84934 Units=m
New Line.LINECmpd_7 Bus1=550 Bus2=891 phases=3 Linecode=35_SAC_PC Length=24.024411 Units=m
New Line.LINECmpd_8 Bus1=182 Bus2=348 phases=3 Linecode=3c_.03_UA Length=2.176841 Units=m
New Line.LINECmpd_9 Bus1=835 Bus2=938 phases=3 Linecode=2c_.0225 Length=12.235976 Units=m
New Line.LINECmpd_10 Bus1=94 Bus2=239 phases=3 Linecode=2c_.0225 Length=36.646265 Units=m
New Line.LINECmpd_11 Bus1=891 Bus2=984 phases=3 Linecode=35_SAC_PC Length=9.889103 Units=m
New Line.LINECmpd_12 Bus1=348 Bus2=614 phases=3 Linecode=3c_.03_UA Length=17.62519 Units=m
New Line.LINECmpd_13 Bus1=94 Bus2=151 phases=3 Linecode=4c_.2 Length=17.08806 Units=m
New Line.LINECmpd_14 Bus1=444 Bus2=698 phases=3 Linecode=35_SAC_PSC Length=8.948486 Units=m
New Line.LINECmpd_15 Bus1=280 Bus2=514 phases=3 Linecode=35_SAC_XSC Length=24.166251 Units=m
New Line.LINECmpd_16 Bus1=348 Bus2=747 phases=3 Linecode=3c_.03_UA Length=25.692133 Units=m
New Line.LINECmpd_17 Bus1=27 Bus2=92 phases=3 Linecode=4c_.2 Length=40.560877 Units=m
New Line.LINECmpd_18 Bus1=590 Bus2=762 phases=3 Linecode=2c_.0225 Length=12.332518 Units=m
New Line.LINECmpd_19 Bus1=240 Bus2=405 phases=3 Linecode=35_SAC_XC Length=21.13875 Units=m
New Line.LINECmpd_20 Bus1=186 Bus2=398 phases=3 Linecode=4c_.1 Length=24.31577 Units=m
New Line.LINECmpd_21 Bus1=409 Bus2=554 phases=3 Linecode=4c_.1 Length=27.21871 Units=m
New Line.LINECmpd_22 Bus1=240 Bus2=280 phases=3 Linecode=4c_.1 Length=15.806124 Units=m
New Line.LINECmpd_23 Bus1=92 Bus2=189 phases=3 Linecode=25_SAC_PC Length=33.696208 Units=m
New Line.LINECmpd_24 Bus1=914 Bus2=982 phases=3 Linecode=2c_.0225 Length=11.31229 Units=m
New Line.LINECmpd_25 Bus1=332 Bus2=590 phases=3 Linecode=2c_.0225 Length=10.231621 Units=m
New Line.LINECmpd_26 Bus1=698 Bus2=780 phases=3 Linecode=35_SAC_PSC Length=9.5709 Units=m
New Line.LINECmpd_27 Bus1=151 Bus2=213 phases=3 Linecode=4c_.1 Length=8.41525 Units=m
New Line.LINECmpd_28 Bus1=1 Bus2=27 phases=3 Linecode=4c_.2 Length=47.061625 Units=m
New Line.LINECmpd_29 Bus1=151 Bus2=182 phases=3 Linecode=4c_.1 Length=19.6919 Units=m
New Line.LINECmpd_30 Bus1=189 Bus2=314 phases=3 Linecode=25_SAC_PC Length=13.386541 Units=m
New Line.LINECmpd_31 Bus1=186 Bus2=240 phases=3 Linecode=4c_.1 Length=28.0847 Units=m
