New Line.LINE177_30 Bus1=177_30 Bus2=177_31 phases=3 Linecode=4c_.3_AS Length=1.9583 Units=m
New Line.LINE177_31 Bus1=177_30 Bus2=177_32 phases=3 Linecode=4c_.3_AS Length=2.5203 Units=m
New Line.LINE177_32 Bus1=177_30 Bus2=177_33 phases=3 Linecode=4c_.3_AS Length=1.9583 Units=m
New Line.LINE177_33 Bus1=177_30 Bus2=177_34 phases=3 Linecode=4c_.3_AS Length=0.01 Units=m
New Line.LINE177_34 Bus1=177_30 Bus2=177_35 phases=3 Linecode=4c_.3_AS Length=0.01 Units=m
New Line.LINE177_35 Bus1=177_31 Bus2=177_36 phases=3 Linecode=4c_.3_AS Length=0.12732 Units=m
New Line.LINE177_36 Bus1=177_31 Bus2=177_37 phases=3 Linecode=4c_.3_AS Length=0.12732 Units=m
New Line.LINE177_37 Bus1=177_36 Bus2=177_38 phases=3 Linecode=4c_.3_AS Length=0.10255 Units=m
New Line.LINE177_38 Bus1=177_36 Bus2=177_39 phases=3 Linecode=4c_.3_AS Length=0.10255 Units=m
New Line.LINE177_39 Bus1=177_38 Bus2=177_40 phases=3 Linecode=4c_.3_AS Length=0.70109 Units=m
New Line.LINE177_40 Bus1=177_38 Bus2=177_41 phases=3 Linecode=4c_.3_AS Length=0.70109 Units=m
New Line.LINE177_41 Bus1=177_40 Bus2=177_42 phases=3 Linecode=4c_.3_AS Length=18.8763 Units=m
New Line.LINE177_42 Bus1=177_40 Bus2=177_43 phases=3 Linecode=4c_.3_AS Length=18.8763 Units=m
New Line.LINE177_43 Bus1=177_42 Bus2=177_44 phases=3 Linecode=4c_.3_AS Length=1.0788 Units=m
New Line.LINE177_44 Bus1=177_42 Bus2=177_45 phases=3 Linecode=4c_.3_AS Length=1.0788 Units=m
New Line.LINE177_45 Bus1=177_44 Bus2=177_46 phases=3 Linecode=4c_.3_AS Length=0.20557 Units=m
New Line.LINE177_46 Bus1=177_44 Bus2=177_47 phases=3 Linecode=4c_.3_AS Length=0.20557 Units=m
New Line.LINE177_47 Bus1=177_46 Bus2=177_48 phases=3 Linecode=4c_.3_AS Length=0.21567 Units=m
New Line.LINE177_48 Bus1=177_46 Bus2=177_49 phases=3 Linecode=4c_.3_AS Length=0.21567 Units=m
New Line.LINE177_49 Bus1=177_48 Bus2=177_50 phases=3 Linecode=4c_.3_AS Length=0.4642 Units=m
New Line.LINE177_50 Bus1=177_48 Bus2=177_51 phases=3 Linecode=4c_.3_AS Length=0.4642 Units=m
New Line.LINE177_51 Bus1=177_50 Bus2=177_52 phases=3 Linecode=4c_.3_AS Length=3.0955 Units=m
New Line.LINE177_52 Bus1=177_50 Bus2=177_53 phases=3 Linecode=4c_.3_AS Length=3.0955 Units=m
New Line.LINE177_53 Bus1=177_52 Bus2=177_54 phases=3 Linecode=4c_.3_AS Length=3.0813 Units=m
New Line.LINE177_54 Bus1=177_52 Bus2=177_55 phases=3 Linecode=4c_.3_AS Length=3.0813 Units=m
New Line.LINE177_55 Bus1=177_54 Bus2=177_56 phases=3 Linecode=4c_.3_AS Length=0.81012 Units=m
New Line.LINE177_56 Bus1=177_54 Bus2=177_57 phases=3 Linecode=4c_.3_AS Length=0.81012 Units=m
New Line.LINE177_57 Bus1=177_56 Bus2=177_58 phases=3 Linecode=4c_.3_AS Length=0.063561 Units=m
New Line.LINE177_58 Bus1=177_56 Bus2=177_59 phases=3 Linecode=4c_.3_AS Length=0.063561 Units=m
New Line.LINE177_59 Bus1=177_58 Bus2=177_60 phases=3 Linecode=4c_.3_AS Length=0.056294 Units=m
New Line.LINE177_60 Bus1=177_58 Bus2=177_61 phases=3 Linecode=4c_.3_AS Length=0.056294 Units=m
New Line.LINE177_61 Bus1=177_60 Bus2=177_62 phases=3 Linecode=4c_.3_AS Length=0.080399 Units=m
New Line.LINE177_62 Bus1=177_60 Bus2=177_63 phases=3 Linecode=4c_.3_AS Length=0.080399 Units=m
New Line.LINE177_63 Bus1=177_62 Bus2=177_64 phases=3 Linecode=4c_.3_AS Length=0.098 Units=m
New Line.LINE177_64 Bus1=177_62 Bus2=177_65 phases=3 Linecode=4c_.3_AS Length=0.098 Units=m
New Line.LINE177_65 Bus1=177_64 Bus2=177_66 phases=3 Linecode=4c_.3_AS Length=0.092346 Units=m
New Line.LINE177_66 Bus1=177_64 Bus2=177_67 phases=3 Linecode=4c_.3_AS Length=0.092346 Units=m
New Line.LINE177_67 Bus1=177_66 Bus2=177_68 phases=3 Linecode=4c_.3_AS Length=0.12219 Units=m
New Line.LINE177_68 Bus1=177_66 Bus2=177_69 phases=3 Linecode=4c_.3_AS Length=0.12219 Units=m
New Line.LINE177_69 Bus1=177_68 Bus2=177_70 phases=3 Linecode=4c_.3_AS Length=0.068029 Units=m
New Line.LINE177_70 Bus1=177_68 Bus2=177_71 phases=3 Linecode=4c_.3_AS Length=0.068029 Units=m
New Line.LINE177_71 Bus1=177_70 Bus2=177_72 phases=3 Linecode=4c_.3_AS Length=0.051865 Units=m
New Line.LINE177_72 Bus1=177_70 Bus2=177_73 phases=3 Linecode=4c_.3_AS Length=0.051865 Units=m
New Line.LINE177_73 Bus1=177_72 Bus2=177_74 phases=3 Linecode=4c_.3_AS Length=0.055972 Units=m
New Line.LINE177_74 Bus1=177_72 Bus2=177_75 phases=3 Linecode=4c_.3_AS Length=0.055972 Units=m
New Line.LINE177_75 Bus1=177_74 Bus2=177_76 phases=3 Linecode=4c_.3_AS Length=0.072623 Units=m
New Line.LINE177_76 Bus1=177_74 Bus2=177_77 phases=3 Linecode=4c_.3_AS Length=0.072623 Units=m
New Line.LINE177_77 Bus1=177_76 Bus2=177_78 phases=3 Linecode=4c_.3_AS Length=0.28008 Units=m
New Line.LINE177_78 Bus1=177_76 Bus2=177_79 phases=3 Linecode=4c_.3_AS Length=0.28008 Units=m
New Line.LINE177_79 Bus1=177_78 Bus2=177_80 phases=3 Linecode=4c_.3_AS Length=1.7744 Units=m
New Line.LINE177_80 Bus1=177_78 Bus2=177_81 phases=3 Linecode=4c_.3_AS Length=1.7744 Units=m
New Line.LINE177_81 Bus1=177_80 Bus2=177_82 phases=3 Linecode=4c_.3_AS Length=0.98678 Units=m
New Line.LINE177_82 Bus1=177_80 Bus2=177_83 phases=3 Linecode=4c_.3_AS Length=0.98678 Units=m
New Line.LINE177_83 Bus1=177_82 Bus2=177_84 phases=3 Linecode=4c_.3_AS Length=0.526 Units=m
New Line.LINE177_84 Bus1=177_82 Bus2=177_85 phases=3 Linecode=4c_.3_AS Length=0.526 Units=m
New Line.LINE177_85 Bus1=177_84 Bus2=177_86 phases=3 Linecode=4c_.3_AS Length=0.97026 Units=m
New Line.LINE177_86 Bus1=177_84 Bus2=177_87 phases=3 Linecode=4c_.3_AS Length=0.97026 Units=m
New Line.LINE177_87 Bus1=177_86 Bus2=177_88 phases=3 Linecode=4c_.3_AS Length=1.7664 Units=m
New Line.LINE177_88 Bus1=177_86 Bus2=177_89 phases=3 Linecode=4c_.3_AS Length=1.7664 Units=m
New Line.LINE177_89 Bus1=177_88 Bus2=177_90 phases=3 Linecode=4c_.3_AS Length=0.41949 Units=m
New Line.LINE177_90 Bus1=177_88 Bus2=177_91 phases=3 Linecode=4c_.3_AS Length=0.41949 Units=m
New Line.LINE177_91 Bus1=177_90 Bus2=177_92 phases=3 Linecode=4c_.3_AS Length=0.71156 Units=m
New Line.LINE177_92 Bus1=177_90 Bus2=177_93 phases=3 Linecode=4c_.3_AS Length=0.71156 Units=m
New Line.LINE177_93 Bus1=177_92 Bus2=177_94 phases=3 Linecode=4c_.3_AS Length=0.50574 Units=m
New Line.LINE177_94 Bus1=177_92 Bus2=177_95 phases=3 Linecode=4c_.3_AS Length=0.50574 Units=m
New Line.LINE177_95 Bus1=177_94 Bus2=177_96 phases=3 Linecode=4c_.3_AS Length=2.0553 Units=m
New Line.LINE177_97 Bus1=177_94 Bus2=177_98 phases=3 Linecode=4c_.3_AS Length=2.0553 Units=m
New Line.LINE177_98 Bus1=177_96 Bus2=177_99 phases=3 Linecode=4c_.3_AS Length=2.8347 Units=m
New Line.LINE177_99 Bus1=177_96 Bus2=177_100 phases=3 Linecode=4c_.3_AS Length=2.8347 Units=m
New Line.LINE177_101 Bus1=177_99 Bus2=177_102 phases=3 Linecode=4c_.3_AS Length=4.7616 Units=m
New Line.LINE177_102 Bus1=177_99 Bus2=177_103 phases=3 Linecode=4c_.3_AS Length=4.7616 Units=m
New Line.LINE177_104 Bus1=177_102 Bus2=177_105 phases=3 Linecode=4c_.3_AS Length=6.1848 Units=m
New Line.LINE177_105 Bus1=177_102 Bus2=177_106 phases=3 Linecode=4c_.3_AS Length=6.1848 Units=m
New Line.LINE177_106 Bus1=177_105 Bus2=177_107 phases=3 Linecode=4c_.3_AS Length=7.3682 Units=m
New Line.LINE177_107 Bus1=177_105 Bus2=177_108 phases=3 Linecode=4c_.3_AS Length=7.3682 Units=m
New Line.LINE177_108 Bus1=177_107 Bus2=177_109 phases=3 Linecode=4c_.3_AS Length=5.7589 Units=m
New Line.LINE177_109 Bus1=177_107 Bus2=177_110 phases=3 Linecode=4c_.3_AS Length=5.7589 Units=m
New Line.LINE177_110 Bus1=177_109 Bus2=177_111 phases=3 Linecode=4c_.3_AS Length=8.232 Units=m
New Line.LINE177_111 Bus1=177_109 Bus2=177_112 phases=3 Linecode=4c_.3_AS Length=8.232 Units=m
New Line.LINE177_112 Bus1=177_111 Bus2=177_113 phases=3 Linecode=4c_.3_AS Length=15.9976 Units=m
New Line.LINE177_113 Bus1=177_111 Bus2=177_114 phases=3 Linecode=4c_.3_AS Length=15.9976 Units=m
New Line.LINE177_114 Bus1=177_113 Bus2=177_115 phases=3 Linecode=4c_.3_AS Length=12.5019 Units=m
New Line.LINE177_116 Bus1=177_115 Bus2=177_117 phases=3 Linecode=4c_.3_AS Length=0.61905 Units=m
New Line.LINE177_117 Bus1=177_115 Bus2=177_118 phases=3 Linecode=4c_.3_AS Length=0.61905 Units=m
New Line.LINE177_118 Bus1=177_115 Bus2=177_119 phases=3 Linecode=4c_.3_AS Length=1.2559 Units=m
New Line.LINE177_120 Bus1=177_117 Bus2=177_121 phases=3 Linecode=4c_.3_AS Length=0.37321 Units=m
New Line.LINE177_121 Bus1=177_117 Bus2=177_122 phases=3 Linecode=4c_.3_AS Length=0.37321 Units=m
New Line.LINE177_123 Bus1=177_121 Bus2=177_124 phases=3 Linecode=4c_.3_AS Length=0.5629 Units=m
New Line.LINE177_124 Bus1=177_121 Bus2=177_125 phases=3 Linecode=4c_.3_AS Length=0.5629 Units=m
New Line.LINE177_126 Bus1=177_124 Bus2=177_127 phases=3 Linecode=4c_.3_AS Length=1.107 Units=m
New Line.LINE177_127 Bus1=177_124 Bus2=177_128 phases=3 Linecode=4c_.3_AS Length=1.107 Units=m
New Line.LINE177_129 Bus1=177_127 Bus2=177_130 phases=3 Linecode=4c_.3_AS Length=1.0376 Units=m
New Line.LINE177_130 Bus1=177_127 Bus2=177_131 phases=3 Linecode=4c_.3_AS Length=1.0376 Units=m
New Line.LINE177_132 Bus1=177_130 Bus2=177_133 phases=3 Linecode=4c_.3_AS Length=1.2692 Units=m
New Line.LINE177_133 Bus1=177_130 Bus2=177_134 phases=3 Linecode=4c_.3_AS Length=1.2692 Units=m
New Line.LINE177_135 Bus1=177_133 Bus2=177_136 phases=3 Linecode=4c_.3_AS Length=1.0347 Units=m
New Line.LINE177_136 Bus1=177_133 Bus2=177_137 phases=3 Linecode=4c_.3_AS Length=1.0347 Units=m
New Line.LINE177_138 Bus1=177_136 Bus2=177_139 phases=3 Linecode=4c_.3_AS Length=0.96261 Units=m
New Line.LINE177_139 Bus1=177_136 Bus2=177_140 phases=3 Linecode=4c_.3_AS Length=0.96261 Units=m
New Line.LINE177_141 Bus1=177_139 Bus2=177_142 phases=3 Linecode=4c_.3_AS Length=0.84607 Units=m
New Line.LINE177_142 Bus1=177_139 Bus2=177_143 phases=3 Linecode=4c_.3_AS Length=0.84607 Units=m
New Line.LINE177_144 Bus1=177_142 Bus2=177_145 phases=3 Linecode=4c_.3_AS Length=0.39915 Units=m
New Line.LINE177_145 Bus1=177_142 Bus2=177_146 phases=3 Linecode=4c_.3_AS Length=0.39915 Units=m
New Line.LINE177_147 Bus1=177_145 Bus2=177_148 phases=3 Linecode=4c_.3_AS Length=1.0491 Units=m
New Line.LINE177_148 Bus1=177_145 Bus2=177_149 phases=3 Linecode=4c_.3_AS Length=1.0491 Units=m
New Line.LINE177_150 Bus1=177_148 Bus2=177_151 phases=3 Linecode=4c_.3_AS Length=1.1739 Units=m
New Line.LINE177_151 Bus1=177_148 Bus2=177_152 phases=3 Linecode=4c_.3_AS Length=1.1739 Units=m
New Line.LINE177_153 Bus1=177_151 Bus2=177_154 phases=3 Linecode=4c_.3_AS Length=0.87707 Units=m
New Line.LINE177_154 Bus1=177_151 Bus2=177_155 phases=3 Linecode=4c_.3_AS Length=0.87707 Units=m
New Line.LINE177_155 Bus1=177_154 Bus2=177_156 phases=3 Linecode=4c_.3_AS Length=0.66239 Units=m
New Line.LINE177_156 Bus1=177_154 Bus2=177_157 phases=3 Linecode=4c_.3_AS Length=0.66239 Units=m
New Line.LINE177_157 Bus1=177_156 Bus2=177_158 phases=3 Linecode=4c_.3_AS Length=0.53939 Units=m
New Line.LINE177_158 Bus1=177_156 Bus2=177_159 phases=3 Linecode=4c_.3_AS Length=0.53939 Units=m
New Line.LINE177_159 Bus1=177_158 Bus2=177_160 phases=3 Linecode=4c_.3_AS Length=0.95786 Units=m
New Line.LINE177_160 Bus1=177_158 Bus2=177_161 phases=3 Linecode=4c_.3_AS Length=0.95786 Units=m
New Line.LINE177_162 Bus1=177_160 Bus2=177_163 phases=3 Linecode=4c_.25 Length=3.7227 Units=m
New Line.LINE177_164 Bus1=177_160 Bus2=177_165 phases=3 Linecode=4c_.25 Length=2.4617 Units=m
New Line.LINE177_167 Bus1=177_165 Bus2=177_168 phases=3 Linecode=4c_.25 Length=10.0208 Units=m
New Line.LINE177_168 Bus1=177_165 Bus2=177_169 phases=3 Linecode=4c_.25 Length=10.0208 Units=m
New Line.LINE177_169 Bus1=177_165 Bus2=177_170 phases=3 Linecode=4c_.25 Length=10.0208 Units=m
New Line.LINE177_171 Bus1=177_167 Bus2=177_172 phases=3 Linecode=4c_.25 Length=4.6187 Units=m
New Line.LINE177_172 Bus1=177_168 Bus2=177_173 phases=3 Linecode=4c_.25 Length=6.3292 Units=m
New Line.LINE177_173 Bus1=177_168 Bus2=177_174 phases=3 Linecode=4c_.25 Length=6.3292 Units=m
New Line.LINE177_174 Bus1=177_168 Bus2=177_175 phases=3 Linecode=4c_.25 Length=6.3292 Units=m
New Line.LINE177_176 Bus1=177_173 Bus2=177_177 phases=3 Linecode=4c_.25 Length=10.6068 Units=m
New Line.LINE177_177 Bus1=177_173 Bus2=177_178 phases=3 Linecode=4c_.25 Length=10.6068 Units=m
New Line.LINE177_179 Bus1=177_177 Bus2=177_180 phases=3 Linecode=4c_.25 Length=7.0399 Units=m
New Line.LINE177_180 Bus1=177_177 Bus2=177_181 phases=3 Linecode=4c_.25 Length=7.0399 Units=m
New Line.LINE177_181 Bus1=177_177 Bus2=177_182 phases=3 Linecode=4c_.25 Length=7.0399 Units=m
New Line.LINE177_183 Bus1=177_177 Bus2=177_184 phases=3 Linecode=4c_.25 Length=7.687 Units=m
New Line.LINE177_185 Bus1=177_180 Bus2=177_186 phases=3 Linecode=4c_.25 Length=13.3051 Units=m
New Line.LINE177_186 Bus1=177_180 Bus2=177_187 phases=3 Linecode=4c_.25 Length=13.3051 Units=m
New Line.LINE177_187 Bus1=177_180 Bus2=177_188 phases=3 Linecode=4c_.25 Length=13.3051 Units=m
New Line.LINE177_190 Bus1=177_186 Bus2=177_191 phases=3 Linecode=4c_.25 Length=4.2972 Units=m
New Line.LINE177_192 Bus1=177_186 Bus2=177_193 phases=3 Linecode=4c_.25 Length=4.2972 Units=m
New Line.LINE177_193 Bus1=177_186 Bus2=177_194 phases=3 Linecode=4c_.25 Length=4.2972 Units=m
New Line.LINE177_196 Bus1=177_191 Bus2=177_197 phases=3 Linecode=4c_.25 Length=3.3899 Units=m
New Line.LINE177_197 Bus1=177_191 Bus2=177_198 phases=3 Linecode=4c_.25 Length=3.3899 Units=m
New Line.LINE177_198 Bus1=177_191 Bus2=177_199 phases=3 Linecode=4c_.25 Length=3.3899 Units=m
New Line.LINE177_202 Bus1=177_197 Bus2=177_203 phases=3 Linecode=4c_.25 Length=1.3964 Units=m
New Line.LINE177_203 Bus1=177_197 Bus2=177_204 phases=3 Linecode=4c_.25 Length=1.3964 Units=m
New Line.LINE177_204 Bus1=177_197 Bus2=177_205 phases=3 Linecode=4c_.25 Length=1.3964 Units=m
New Line.LINE177_209 Bus1=177_203 Bus2=177_210 phases=3 Linecode=4c_.25 Length=3.0452 Units=m
New Line.LINE177_210 Bus1=177_203 Bus2=177_211 phases=3 Linecode=4c_.25 Length=3.0452 Units=m
New Line.LINE177_217 Bus1=177_215 Bus2=177_218 phases=3 Linecode=2c_.04 Length=3.0556 Units=m
New Line.LINE177_218 Bus1=177_215 Bus2=177_219 phases=3 Linecode=3c_.04 Length=3.0556 Units=m
New Line.LINE177_221 Bus1=177_217 Bus2=177_222 phases=3 Linecode=2c_.04 Length=4.7434 Units=m
New Line.LINE177_223 Bus1=177_218 Bus2=177_224 phases=3 Linecode=2c_.04 Length=0.32739 Units=m
New Line.LINE177_224 Bus1=177_218 Bus2=177_225 phases=3 Linecode=3c_.04 Length=0.32739 Units=m
New Line.LINE177_228 Bus1=177_224 Bus2=177_229 phases=3 Linecode=2c_.04 Length=0.21836 Units=m
New Line.LINE177_229 Bus1=177_224 Bus2=177_230 phases=3 Linecode=3c_.04 Length=0.21836 Units=m
New Line.LINE177_230 Bus1=177_226 Bus2=177_231 phases=3 Linecode=25_SAC_XC Length=4.8122 Units=m
New Line.LINE177_234 Bus1=177_229 Bus2=177_235 phases=3 Linecode=2c_.04 Length=0.44294 Units=m
New Line.LINE177_235 Bus1=177_229 Bus2=177_236 phases=3 Linecode=3c_.04 Length=0.44294 Units=m
New Line.LINE177_236 Bus1=177_231 Bus2=177_237 phases=3 Linecode=25_SAC_XC Length=4.5113 Units=m
New Line.LINE177_237 Bus1=177_231 Bus2=177_238 phases=3 Linecode=25_SAC_XC Length=4.5113 Units=m
New Line.LINE177_241 Bus1=177_235 Bus2=177_242 phases=3 Linecode=2c_.04 Length=0.033121 Units=m
New Line.LINE177_242 Bus1=177_235 Bus2=177_243 phases=3 Linecode=3c_.04 Length=0.033121 Units=m
New Line.LINE177_246 Bus1=177_242 Bus2=177_247 phases=3 Linecode=2c_.04 Length=0.032651 Units=m
New Line.LINE177_247 Bus1=177_242 Bus2=177_248 phases=3 Linecode=3c_.04 Length=0.032651 Units=m
New Line.LINE177_252 Bus1=177_247 Bus2=177_253 phases=3 Linecode=2c_.04 Length=0.032557 Units=m
New Line.LINE177_253 Bus1=177_247 Bus2=177_254 phases=3 Linecode=3c_.04 Length=0.032557 Units=m
New Line.LINE177_258 Bus1=177_253 Bus2=177_259 phases=3 Linecode=2c_.04 Length=1.7656 Units=m
New Line.LINE177_259 Bus1=177_253 Bus2=177_260 phases=3 Linecode=3c_.04 Length=1.7656 Units=m
New Line.LINE177_265 Bus1=177_259 Bus2=177_266 phases=3 Linecode=2c_.04 Length=7.8263 Units=m
New Line.LINE177_266 Bus1=177_259 Bus2=177_267 phases=3 Linecode=3c_.04 Length=7.8263 Units=m
New Line.LINE177_276 Bus1=177_270 Bus2=177_277 phases=3 Linecode=2c_.04 Length=5.6374 Units=m
New Line.LINE177_277 Bus1=177_270 Bus2=177_278 phases=3 Linecode=4c_.25 Length=9.6962 Units=m
New Line.LINE177_284 Bus1=177_277 Bus2=177_285 phases=3 Linecode=2c_.04 Length=4.0078 Units=m
New Line.LINE177_358 Bus1=177_349 Bus2=177_359 phases=3 Linecode=2c_.04 Length=3.7519 Units=m
New Line.LINE177_369 Bus1=177_361 Bus2=177_370 phases=3 Linecode=2c_.04 Length=4.2429 Units=m
New Line.LINE177_399 Bus1=177_390 Bus2=177_400 phases=3 Linecode=2c_.04 Length=3.7977 Units=m
New Line.LINE177_416 Bus1=177_407 Bus2=177_417 phases=3 Linecode=2c_.04 Length=5.0462 Units=m
New Line.LINE177_417 Bus1=177_407 Bus2=177_418 phases=3 Linecode=2c_.04 Length=0.31598 Units=m
New Line.LINE177_418 Bus1=177_407 Bus2=177_419 phases=3 Linecode=2c_.04 Length=0.31598 Units=m
New Line.LINE177_427 Bus1=177_415 Bus2=177_428 phases=3 Linecode=4c_25 Length=4.5067 Units=m
New Line.LINE177_429 Bus1=177_418 Bus2=177_430 phases=3 Linecode=2c_.04 Length=0.10208 Units=m
New Line.LINE177_430 Bus1=177_418 Bus2=177_431 phases=3 Linecode=2c_.04 Length=0.10208 Units=m
New Line.LINE177_439 Bus1=177_428 Bus2=177_440 phases=3 Linecode=2c_.04 Length=3.6921 Units=m
New Line.LINE177_440 Bus1=177_428 Bus2=177_441 phases=3 Linecode=4c_25 Length=3.7985 Units=m
New Line.LINE177_442 Bus1=177_430 Bus2=177_443 phases=3 Linecode=2c_.04 Length=0.35706 Units=m
New Line.LINE177_443 Bus1=177_430 Bus2=177_444 phases=3 Linecode=2c_.04 Length=0.35706 Units=m
New Line.LINE177_455 Bus1=177_441 Bus2=177_456 phases=3 Linecode=4c_25 Length=11.9206 Units=m
New Line.LINE177_457 Bus1=177_443 Bus2=177_458 phases=3 Linecode=2c_.04 Length=0.2908 Units=m
New Line.LINE177_458 Bus1=177_443 Bus2=177_459 phases=3 Linecode=2c_.04 Length=0.2908 Units=m
New Line.LINE177_470 Bus1=177_456 Bus2=177_471 phases=3 Linecode=2c_.04 Length=5.1083 Units=m
New Line.LINE177_473 Bus1=177_458 Bus2=177_474 phases=3 Linecode=2c_.04 Length=0.13515 Units=m
New Line.LINE177_474 Bus1=177_458 Bus2=177_475 phases=3 Linecode=2c_.04 Length=0.13515 Units=m
New Line.LINE177_485 Bus1=177_471 Bus2=177_486 phases=3 Linecode=2c_.04 Length=4.9069 Units=m
New Line.LINE177_489 Bus1=177_474 Bus2=177_490 phases=3 Linecode=2c_.04 Length=0.16181 Units=m
New Line.LINE177_490 Bus1=177_474 Bus2=177_491 phases=3 Linecode=2c_.04 Length=0.16181 Units=m
New Line.LINE177_505 Bus1=177_490 Bus2=177_506 phases=3 Linecode=2c_.04 Length=0.17361 Units=m
New Line.LINE177_506 Bus1=177_490 Bus2=177_507 phases=3 Linecode=2c_.04 Length=0.17361 Units=m
New Line.LINE177_519 Bus1=177_504 Bus2=177_520 phases=3 Linecode=4c_.25 Length=3.7228 Units=m
New Line.LINE177_521 Bus1=177_504 Bus2=177_522 phases=3 Linecode=4c_.25 Length=3.7228 Units=m
New Line.LINE177_523 Bus1=177_506 Bus2=177_524 phases=3 Linecode=2c_.04 Length=0.48474 Units=m
New Line.LINE177_524 Bus1=177_506 Bus2=177_525 phases=3 Linecode=2c_.04 Length=0.48474 Units=m
New Line.LINE177_537 Bus1=177_520 Bus2=177_538 phases=3 Linecode=4c_.25 Length=0.18984 Units=m
New Line.LINE177_538 Bus1=177_520 Bus2=177_539 phases=3 Linecode=4c_.25 Length=0.18984 Units=m
New Line.LINE177_541 Bus1=177_524 Bus2=177_542 phases=3 Linecode=2c_.04 Length=5.6278 Units=m
New Line.LINE177_542 Bus1=177_524 Bus2=177_543 phases=3 Linecode=2c_.04 Length=5.6278 Units=m
New Line.LINE177_554 Bus1=177_538 Bus2=177_555 phases=3 Linecode=4c_.25 Length=0.15535 Units=m
New Line.LINE177_555 Bus1=177_538 Bus2=177_556 phases=3 Linecode=4c_.25 Length=0.15535 Units=m
New Line.LINE177_558 Bus1=177_542 Bus2=177_559 phases=3 Linecode=2c_.04 Length=0.12204 Units=m
New Line.LINE177_559 Bus1=177_542 Bus2=177_560 phases=3 Linecode=2c_.04 Length=0.12204 Units=m
New Line.LINE177_562 Bus1=177_546 Bus2=177_563 phases=3 Linecode=2c_.04 Length=5.7062 Units=m
New Line.LINE177_563 Bus1=177_546 Bus2=177_564 phases=3 Linecode=2c_.04 Length=5.7062 Units=m
New Line.LINE177_571 Bus1=177_555 Bus2=177_572 phases=3 Linecode=4c_.25 Length=0.17465 Units=m
New Line.LINE177_572 Bus1=177_555 Bus2=177_573 phases=3 Linecode=4c_.25 Length=0.17465 Units=m
New Line.LINE177_575 Bus1=177_558 Bus2=177_576 phases=3 Linecode=4c_.12 Length=2.4883 Units=m
New Line.LINE177_576 Bus1=177_559 Bus2=177_577 phases=3 Linecode=2c_.04 Length=0.13396 Units=m
New Line.LINE177_577 Bus1=177_559 Bus2=177_578 phases=3 Linecode=2c_.04 Length=0.13396 Units=m
New Line.LINE177_587 Bus1=177_572 Bus2=177_588 phases=3 Linecode=4c_.25 Length=0.17576 Units=m
New Line.LINE177_588 Bus1=177_572 Bus2=177_589 phases=3 Linecode=4c_.25 Length=0.17576 Units=m
New Line.LINE177_593 Bus1=177_577 Bus2=177_594 phases=3 Linecode=2c_.04 Length=0.12489 Units=m
New Line.LINE177_594 Bus1=177_577 Bus2=177_595 phases=3 Linecode=2c_.04 Length=0.12489 Units=m
New Line.LINE177_604 Bus1=177_588 Bus2=177_605 phases=3 Linecode=4c_.25 Length=1.4454 Units=m
New Line.LINE177_605 Bus1=177_588 Bus2=177_606 phases=3 Linecode=4c_.25 Length=1.4454 Units=m
New Line.LINE177_610 Bus1=177_594 Bus2=177_611 phases=3 Linecode=2c_.04 Length=0.088 Units=m
New Line.LINE177_611 Bus1=177_594 Bus2=177_612 phases=3 Linecode=2c_.04 Length=0.088 Units=m
New Line.LINE177_619 Bus1=177_605 Bus2=177_620 phases=3 Linecode=4c_.25 Length=7.3826 Units=m
New Line.LINE177_620 Bus1=177_605 Bus2=177_621 phases=3 Linecode=4c_.25 Length=7.3826 Units=m
New Line.LINE177_626 Bus1=177_611 Bus2=177_627 phases=3 Linecode=2c_.04 Length=0.087966 Units=m
New Line.LINE177_627 Bus1=177_611 Bus2=177_628 phases=3 Linecode=2c_.04 Length=0.087966 Units=m
New Line.LINE177_635 Bus1=177_620 Bus2=177_636 phases=3 Linecode=4c_.25 Length=3.8554 Units=m
New Line.LINE177_636 Bus1=177_620 Bus2=177_637 phases=3 Linecode=4c_.25 Length=3.8554 Units=m
New Line.LINE177_642 Bus1=177_627 Bus2=177_643 phases=3 Linecode=2c_.04 Length=0.10379 Units=m
New Line.LINE177_643 Bus1=177_627 Bus2=177_644 phases=3 Linecode=2c_.04 Length=0.10379 Units=m
New Line.LINE177_651 Bus1=177_636 Bus2=177_652 phases=3 Linecode=4c_.25 Length=2.1897 Units=m
New Line.LINE177_652 Bus1=177_636 Bus2=177_653 phases=3 Linecode=4c_.25 Length=2.1897 Units=m
New Line.LINE177_657 Bus1=177_642 Bus2=177_658 phases=3 Linecode=4c_.12 Length=8.7156 Units=m
New Line.LINE177_659 Bus1=177_643 Bus2=177_660 phases=3 Linecode=2c_.04 Length=0.8472 Units=m
New Line.LINE177_661 Bus1=177_646 Bus2=177_662 phases=3 Linecode=2c_.04 Length=3.3098 Units=m
New Line.LINE177_662 Bus1=177_646 Bus2=177_663 phases=3 Linecode=2c_.04 Length=3.3098 Units=m
New Line.LINE177_669 Bus1=177_652 Bus2=177_670 phases=3 Linecode=4c_.25 Length=2.3459 Units=m
New Line.LINE177_670 Bus1=177_652 Bus2=177_671 phases=3 Linecode=4c_.25 Length=2.3459 Units=m
New Line.LINE177_676 Bus1=177_658 Bus2=177_677 phases=3 Linecode=2c_.04 Length=6.6899 Units=m
New Line.LINE177_686 Bus1=177_670 Bus2=177_687 phases=3 Linecode=4c_.25 Length=5.0156 Units=m
New Line.LINE177_688 Bus1=177_670 Bus2=177_689 phases=3 Linecode=4c_.25 Length=5.0156 Units=m
New Line.LINE177_695 Bus1=177_677 Bus2=177_696 phases=3 Linecode=2c_.04 Length=0.52619 Units=m
New Line.LINE177_702 Bus1=177_687 Bus2=177_703 phases=3 Linecode=4c_.25 Length=3.7547 Units=m
New Line.LINE177_703 Bus1=177_687 Bus2=177_704 phases=3 Linecode=4c_.25 Length=3.7547 Units=m
New Line.LINE177_712 Bus1=177_699 Bus2=177_713 phases=3 Linecode=2c_.04 Length=3.0635 Units=m
New Line.LINE177_713 Bus1=177_699 Bus2=177_714 phases=3 Linecode=2c_.04 Length=3.0635 Units=m
New Line.LINE177_719 Bus1=177_703 Bus2=177_720 phases=3 Linecode=4c_.25 Length=2.3562 Units=m
New Line.LINE177_720 Bus1=177_703 Bus2=177_721 phases=3 Linecode=4c_.25 Length=2.3562 Units=m
New Line.LINE177_728 Bus1=177_711 Bus2=177_729 phases=3 Linecode=4c_.12 Length=1.5126 Units=m
New Line.LINE177_734 Bus1=177_720 Bus2=177_735 phases=3 Linecode=4c_.25 Length=19.1584 Units=m
New Line.LINE177_735 Bus1=177_720 Bus2=177_736 phases=3 Linecode=4c_.25 Length=19.1584 Units=m
New Line.LINE177_738 Bus1=177_723 Bus2=177_739 phases=3 Linecode=4c_.04 Length=0.56268 Units=m
New Line.LINE177_748 Bus1=177_735 Bus2=177_749 phases=3 Linecode=4c_.04 Length=6.2096 Units=m
New Line.LINE177_749 Bus1=177_735 Bus2=177_750 phases=3 Linecode=4c_.25 Length=9.6528 Units=m
New Line.LINE177_750 Bus1=177_735 Bus2=177_751 phases=3 Linecode=4c_.25 Length=9.6528 Units=m
New Line.LINE177_767 Bus1=177_750 Bus2=177_768 phases=3 Linecode=4c_.25 Length=2.2214 Units=m
New Line.LINE177_785 Bus1=177_768 Bus2=177_786 phases=3 Linecode=4c_.25 Length=20.4237 Units=m
New Line.LINE177_786 Bus1=177_768 Bus2=177_787 phases=3 Linecode=4c_.25 Length=20.4237 Units=m
New Line.LINE177_787 Bus1=177_768 Bus2=177_788 phases=3 Linecode=4c_.25 Length=0.62473 Units=m
New Line.LINE177_798 Bus1=177_778 Bus2=177_799 phases=3 Linecode=4c_.12 Length=0.83143 Units=m
New Line.LINE177_806 Bus1=177_786 Bus2=177_807 phases=3 Linecode=4c_.25 Length=11.3485 Units=m
New Line.LINE177_808 Bus1=177_786 Bus2=177_809 phases=3 Linecode=4c_.25 Length=11.3485 Units=m
New Line.LINE177_810 Bus1=177_789 Bus2=177_811 phases=3 Linecode=4c_.04 Length=2.3127 Units=m
New Line.LINE177_819 Bus1=177_797 Bus2=177_820 phases=3 Linecode=2c_.04 Length=0.77742 Units=m
New Line.LINE177_822 Bus1=177_799 Bus2=177_823 phases=3 Linecode=4c_.12 Length=3.2854 Units=m
New Line.LINE177_830 Bus1=177_807 Bus2=177_831 phases=3 Linecode=4c_.25 Length=19.2085 Units=m
New Line.LINE177_832 Bus1=177_807 Bus2=177_833 phases=3 Linecode=4c_.25 Length=19.2085 Units=m
New Line.LINE177_835 Bus1=177_811 Bus2=177_836 phases=3 Linecode=2c_.04 Length=1.0004 Units=m
New Line.LINE177_879 Bus1=177_854 Bus2=177_880 phases=3 Linecode=2c_.04 Length=3.8384 Units=m
New Line.LINE177_910 Bus1=177_885 Bus2=177_911 phases=3 Linecode=4c_.06 Length=4.5829 Units=m
New Line.LINE177_999 Bus1=177_969 Bus2=177_1000 phases=3 Linecode=4c_.06 Length=6.1071 Units=m
New Line.LINE177_1030 Bus1=177_1000 Bus2=177_1031 phases=3 Linecode=4c_.06 Length=8.9765 Units=m
New Line.LINE177_1037 Bus1=177_1006 Bus2=177_1038 phases=3 Linecode=2c_.04 Length=4.8005 Units=m
New Line.LINE177_1039 Bus1=177_1007 Bus2=177_1040 phases=3 Linecode=2c_.04 Length=4.6758 Units=m
New Line.LINE177_1042 Bus1=177_1009 Bus2=177_1043 phases=3 Linecode=2c_.04 Length=5.8102 Units=m
New Line.LINE177_1064 Bus1=177_1031 Bus2=177_1065 phases=3 Linecode=4c_.06 Length=9.6215 Units=m
New Line.LINE177_1098 Bus1=177_1065 Bus2=177_1099 phases=3 Linecode=4c_.06 Length=6.6308 Units=m
New Line.LINE177_1110 Bus1=177_1076 Bus2=177_1111 phases=3 Linecode=2c_.04 Length=5.7671 Units=m
New Line.LINE177_1111 Bus1=177_1076 Bus2=177_1112 phases=3 Linecode=2c_.04 Length=6.6783 Units=m
New Line.LINE177_1112 Bus1=177_1076 Bus2=177_1113 phases=3 Linecode=2c_.04 Length=0.1636 Units=m
New Line.LINE177_1113 Bus1=177_1076 Bus2=177_1114 phases=3 Linecode=2c_.04 Length=0.1636 Units=m
New Line.LINE177_1117 Bus1=177_1080 Bus2=177_1118 phases=3 Linecode=2c_.04 Length=5.2177 Units=m
New Line.LINE177_1136 Bus1=177_1099 Bus2=177_1137 phases=3 Linecode=2c_.04 Length=8.4176 Units=m
New Line.LINE177_1145 Bus1=177_1108 Bus2=177_1146 phases=3 Linecode=2c_.04 Length=6.0387 Units=m
New Line.LINE177_1146 Bus1=177_1108 Bus2=177_1147 phases=3 Linecode=2c_.04 Length=4.0203 Units=m
New Line.LINE177_1149 Bus1=177_1113 Bus2=177_1150 phases=3 Linecode=2c_.04 Length=0.18313 Units=m
New Line.LINE177_1150 Bus1=177_1113 Bus2=177_1151 phases=3 Linecode=2c_.04 Length=0.18313 Units=m
New Line.LINE177_1155 Bus1=177_1120 Bus2=177_1156 phases=3 Linecode=2c_.04 Length=6.0191 Units=m
New Line.LINE177_1182 Bus1=177_1147 Bus2=177_1183 phases=3 Linecode=2c_.04 Length=6.335 Units=m
New Line.LINE177_1186 Bus1=177_1150 Bus2=177_1187 phases=3 Linecode=2c_.04 Length=0.18815 Units=m
New Line.LINE177_1187 Bus1=177_1150 Bus2=177_1188 phases=3 Linecode=2c_.04 Length=0.18815 Units=m
New Line.LINE177_1201 Bus1=177_1167 Bus2=177_1202 phases=3 Linecode=2c_.04 Length=4.5689 Units=m
New Line.LINE177_1203 Bus1=177_1168 Bus2=177_1204 phases=3 Linecode=2c_.04 Length=3.0538 Units=m
New Line.LINE177_1220 Bus1=177_1187 Bus2=177_1221 phases=3 Linecode=2c_.04 Length=0.12594 Units=m
New Line.LINE177_1221 Bus1=177_1187 Bus2=177_1222 phases=3 Linecode=2c_.04 Length=0.12594 Units=m
New Line.LINE177_1236 Bus1=177_1206 Bus2=177_1237 phases=3 Linecode=2c_.04 Length=3.2669 Units=m
New Line.LINE177_1252 Bus1=177_1221 Bus2=177_1253 phases=3 Linecode=2c_.04 Length=0.2318 Units=m
New Line.LINE177_1253 Bus1=177_1221 Bus2=177_1254 phases=3 Linecode=2c_.04 Length=0.2318 Units=m
New Line.LINE177_1273 Bus1=177_1246 Bus2=177_1274 phases=3 Linecode=2c_.04 Length=2.6936 Units=m
New Line.LINE177_1281 Bus1=177_1253 Bus2=177_1282 phases=3 Linecode=2c_.04 Length=0.36323 Units=m
New Line.LINE177_1282 Bus1=177_1253 Bus2=177_1283 phases=3 Linecode=2c_.04 Length=0.36323 Units=m
New Line.LINE177_1287 Bus1=177_1260 Bus2=177_1288 phases=3 Linecode=3c_.04 Length=4.2924 Units=m
New Line.LINE177_1289 Bus1=177_1261 Bus2=177_1290 phases=3 Linecode=3c_.04 Length=3.8604 Units=m
New Line.LINE177_1303 Bus1=177_1276 Bus2=177_1304 phases=3 Linecode=2c_.04 Length=2.8265 Units=m
New Line.LINE177_1309 Bus1=177_1282 Bus2=177_1310 phases=3 Linecode=2c_.04 Length=0.25248 Units=m
New Line.LINE177_1310 Bus1=177_1282 Bus2=177_1311 phases=3 Linecode=2c_.04 Length=0.25248 Units=m
New Line.LINE177_1319 Bus1=177_1294 Bus2=177_1320 phases=3 Linecode=2c_.04 Length=5.8506 Units=m
New Line.LINE177_1320 Bus1=177_1294 Bus2=177_1321 phases=3 Linecode=2c_.04 Length=5.8506 Units=m
New Line.LINE177_1324 Bus1=177_1298 Bus2=177_1325 phases=3 Linecode=2c_.04 Length=5.224 Units=m
New Line.LINE177_1340 Bus1=177_1310 Bus2=177_1341 phases=3 Linecode=2c_.04 Length=0.1287 Units=m
New Line.LINE177_1341 Bus1=177_1310 Bus2=177_1342 phases=3 Linecode=2c_.04 Length=0.1287 Units=m
New Line.LINE177_1367 Bus1=177_1341 Bus2=177_1368 phases=3 Linecode=2c_.04 Length=0.28925 Units=m
New Line.LINE177_1368 Bus1=177_1341 Bus2=177_1369 phases=3 Linecode=2c_.04 Length=0.28925 Units=m
New Line.LINE177_1380 Bus1=177_1355 Bus2=177_1381 phases=3 Linecode=2c_.04 Length=4.5288 Units=m
New Line.LINE177_1394 Bus1=177_1368 Bus2=177_1395 phases=3 Linecode=2c_.04 Length=0.57685 Units=m
New Line.LINE177_1395 Bus1=177_1368 Bus2=177_1396 phases=3 Linecode=2c_.04 Length=0.57685 Units=m
New Line.LINE177_1420 Bus1=177_1395 Bus2=177_1421 phases=3 Linecode=2c_.04 Length=0.21038 Units=m