New Load.LOAD177_1 Phases=1 Bus1=177_167.1 kV=0.23 kW=1 PF=0.95
New Load.LOAD177_2 Phases=1 Bus1=177_222.3 kV=0.23 kW=1 PF=0.95
New Load.LOAD177_3 Phases=1 Bus1=177_237.2 kV=0.23 kW=1 PF=0.95
New Load.LOAD177_4 Phases=1 Bus1=177_238.2 kV=0.23 kW=1 PF=0.95
New Load.LOAD177_5 Phases=1 Bus1=177_285.2 kV=0.23 kW=1 PF=0.95
New Load.LOAD177_6 Phases=1 Bus1=177_359.1 kV=0.23 kW=1 PF=0.95
New Load.LOAD177_7 Phases=1 Bus1=177_370.3 kV=0.23 kW=1 PF=0.95
New Load.LOAD177_8 Phases=1 Bus1=177_400.1 kV=0.23 kW=1 PF=0.95
New Load.LOAD177_9 Phases=1 Bus1=177_417.3 kV=0.23 kW=1 PF=0.95
New Load.LOAD177_10 Phases=1 Bus1=177_465.2 kV=0.23 kW=1 PF=0.95
New Load.LOAD177_11 Phases=1 Bus1=177_486.1 kV=0.23 kW=1 PF=0.95
New Load.LOAD177_12 Phases=1 Bus1=177_563.3 kV=0.23 kW=1 PF=0.95
New Load.LOAD177_13 Phases=1 Bus1=177_564.3 kV=0.23 kW=1 PF=0.95
New Load.LOAD177_14 Phases=1 Bus1=177_600.1 kV=0.23 kW=1 PF=0.95
New Load.LOAD177_15 Phases=1 Bus1=177_601.1 kV=0.23 kW=1 PF=0.95
New Load.LOAD177_16 Phases=1 Bus1=177_662.1 kV=0.23 kW=1 PF=0.95
New Load.LOAD177_17 Phases=1 Bus1=177_663.1 kV=0.23 kW=1 PF=0.95
New Load.LOAD177_18 Phases=1 Bus1=177_679.3 kV=0.23 kW=1 PF=0.95
New Load.LOAD177_19 Phases=1 Bus1=177_680.2 kV=0.23 kW=1 PF=0.95
New Load.LOAD177_20 Phases=1 Bus1=177_684.2 kV=0.23 kW=1 PF=0.95
New Load.LOAD177_21 Phases=1 Bus1=177_685.2 kV=0.23 kW=1 PF=0.95
New Load.LOAD177_22 Phases=1 Bus1=177_693.2 kV=0.23 kW=1 PF=0.95
New Load.LOAD177_23 Phases=1 Bus1=177_708.2 kV=0.23 kW=1 PF=0.95
New Load.LOAD177_24 Phases=1 Bus1=177_713.1 kV=0.23 kW=1 PF=0.95
New Load.LOAD177_25 Phases=1 Bus1=177_714.1 kV=0.23 kW=1 PF=0.95
New Load.LOAD177_26 Phases=1 Bus1=177_724.1 kV=0.23 kW=1 PF=0.95
New Load.LOAD177_27 Phases=1 Bus1=177_726.3 kV=0.23 kW=1 PF=0.95
New Load.LOAD177_28 Phases=1 Bus1=177_732.1 kV=0.23 kW=1 PF=0.95
New Load.LOAD177_29 Phases=1 Bus1=177_880.3 kV=0.23 kW=1 PF=0.95
New Load.LOAD177_30 Phases=1 Bus1=177_1038.3 kV=0.23 kW=1 PF=0.95
New Load.LOAD177_31 Phases=1 Bus1=177_1040.2 kV=0.23 kW=1 PF=0.95
New Load.LOAD177_32 Phases=1 Bus1=177_1043.2 kV=0.23 kW=1 PF=0.95
New Load.LOAD177_33 Phases=1 Bus1=177_1085.1 kV=0.23 kW=1 PF=0.95
New Load.LOAD177_34 Phases=1 Bus1=177_1088.2 kV=0.23 kW=1 PF=0.95
New Load.LOAD177_35 Phases=1 Bus1=177_1111.3 kV=0.23 kW=1 PF=0.95
New Load.LOAD177_36 Phases=1 Bus1=177_1112.3 kV=0.23 kW=1 PF=0.95
New Load.LOAD177_37 Phases=1 Bus1=177_1118.3 kV=0.23 kW=1 PF=0.95
New Load.LOAD177_38 Phases=1 Bus1=177_1125.1 kV=0.23 kW=1 PF=0.95
New Load.LOAD177_39 Phases=1 Bus1=177_1146.1 kV=0.23 kW=1 PF=0.95
New Load.LOAD177_40 Phases=1 Bus1=177_1156.1 kV=0.23 kW=1 PF=0.95
New Load.LOAD177_41 Phases=1 Bus1=177_1162.2 kV=0.23 kW=1 PF=0.95
New Load.LOAD177_42 Phases=1 Bus1=177_1183.1 kV=0.23 kW=1 PF=0.95
New Load.LOAD177_43 Phases=1 Bus1=177_1197.1 kV=0.23 kW=1 PF=0.95
New Load.LOAD177_44 Phases=1 Bus1=177_1202.3 kV=0.23 kW=1 PF=0.95
New Load.LOAD177_45 Phases=1 Bus1=177_1204.1 kV=0.23 kW=1 PF=0.95
New Load.LOAD177_46 Phases=1 Bus1=177_1236.1 kV=0.23 kW=1 PF=0.95
New Load.LOAD177_47 Phases=1 Bus1=177_1237.2 kV=0.23 kW=1 PF=0.95
New Load.LOAD177_48 Phases=1 Bus1=177_1267.2 kV=0.23 kW=1 PF=0.95
New Load.LOAD177_49 Phases=1 Bus1=177_1274.1 kV=0.23 kW=1 PF=0.95
New Load.LOAD177_50 Phases=1 Bus1=177_1280.3 kV=0.23 kW=1 PF=0.95
New Load.LOAD177_51 Phases=1 Bus1=177_1288.2 kV=0.23 kW=1 PF=0.95
New Load.LOAD177_52 Phases=1 Bus1=177_1290.2 kV=0.23 kW=1 PF=0.95
New Load.LOAD177_53 Phases=1 Bus1=177_1304.3 kV=0.23 kW=1 PF=0.95
New Load.LOAD177_54 Phases=1 Bus1=177_1320.1 kV=0.23 kW=1 PF=0.95
New Load.LOAD177_55 Phases=1 Bus1=177_1321.1 kV=0.23 kW=1 PF=0.95
New Load.LOAD177_56 Phases=1 Bus1=177_1325.2 kV=0.23 kW=1 PF=0.95
New Load.LOAD177_57 Phases=1 Bus1=177_1381.1 kV=0.23 kW=1 PF=0.95
New Load.LOAD177_58 Phases=1 Bus1=177_1403.1 kV=0.23 kW=1 PF=0.95
New Load.LOAD177_59 Phases=1 Bus1=177_1434.1 kV=0.23 kW=1 PF=0.95
New Load.LOAD177_60 Phases=1 Bus1=177_1445.2 kV=0.23 kW=1 PF=0.95
New Load.LOAD177_61 Phases=1 Bus1=177_1458.1 kV=0.23 kW=1 PF=0.95
New Load.LOAD177_62 Phases=1 Bus1=177_1522.2 kV=0.23 kW=1 PF=0.95
New Load.LOAD177_63 Phases=1 Bus1=177_1545.1 kV=0.23 kW=1 PF=0.95
New Load.LOAD177_64 Phases=1 Bus1=177_1546.1 kV=0.23 kW=1 PF=0.95
New Load.LOAD177_65 Phases=1 Bus1=177_1548.3 kV=0.23 kW=1 PF=0.95
New Load.LOAD177_66 Phases=1 Bus1=177_1549.3 kV=0.23 kW=1 PF=0.95
New Load.LOAD177_67 Phases=1 Bus1=177_1553.1 kV=0.23 kW=1 PF=0.95
New Load.LOAD177_68 Phases=1 Bus1=177_1554.2 kV=0.23 kW=1 PF=0.95
New Load.LOAD177_69 Phases=1 Bus1=177_1599.3 kV=0.23 kW=1 PF=0.95
New Load.LOAD177_70 Phases=1 Bus1=177_1600.2 kV=0.23 kW=1 PF=0.95
New Load.LOAD177_71 Phases=1 Bus1=177_1603.1 kV=0.23 kW=1 PF=0.95
New Load.LOAD177_72 Phases=1 Bus1=177_1637.2 kV=0.23 kW=1 PF=0.95
New Load.LOAD177_73 Phases=1 Bus1=177_1638.3 kV=0.23 kW=1 PF=0.95
New Load.LOAD177_74 Phases=1 Bus1=177_1664.2 kV=0.23 kW=1 PF=0.95
New Load.LOAD177_75 Phases=1 Bus1=177_1666.1 kV=0.23 kW=1 PF=0.95
New Load.LOAD177_76 Phases=1 Bus1=177_1671.3 kV=0.23 kW=1 PF=0.95
New Load.LOAD177_77 Phases=1 Bus1=177_1672.3 kV=0.23 kW=1 PF=0.95
New Load.LOAD177_78 Phases=1 Bus1=177_1684.2 kV=0.23 kW=1 PF=0.95
New Load.LOAD177_79 Phases=1 Bus1=177_1697.2 kV=0.23 kW=1 PF=0.95
New Load.LOAD177_80 Phases=1 Bus1=177_1717.3 kV=0.23 kW=1 PF=0.95
New Load.LOAD177_81 Phases=1 Bus1=177_1721.1 kV=0.23 kW=1 PF=0.95
New Load.LOAD177_82 Phases=1 Bus1=177_1722.1 kV=0.23 kW=1 PF=0.95
New Load.LOAD177_83 Phases=1 Bus1=177_1725.3 kV=0.23 kW=1 PF=0.95
New Load.LOAD177_84 Phases=1 Bus1=177_1736.1 kV=0.23 kW=1 PF=0.95
New Load.LOAD177_85 Phases=1 Bus1=177_1747.3 kV=0.23 kW=1 PF=0.95
New Load.LOAD177_86 Phases=1 Bus1=177_1751.1 kV=0.23 kW=1 PF=0.95
New Load.LOAD177_87 Phases=1 Bus1=177_1754.3 kV=0.23 kW=1 PF=0.95
New Load.LOAD177_88 Phases=1 Bus1=177_1761.3 kV=0.23 kW=1 PF=0.95
New Load.LOAD177_89 Phases=1 Bus1=177_1784.1 kV=0.23 kW=1 PF=0.95
New Load.LOAD177_90 Phases=1 Bus1=177_1803.2 kV=0.23 kW=1 PF=0.95
New Load.LOAD177_91 Phases=1 Bus1=177_1993.2 kV=0.23 kW=1 PF=0.95
New Load.LOAD177_92 Phases=1 Bus1=177_1994.2 kV=0.23 kW=1 PF=0.95
New Load.LOAD177_93 Phases=1 Bus1=177_1997.3 kV=0.23 kW=1 PF=0.95
New Load.LOAD177_94 Phases=1 Bus1=177_1998.3 kV=0.23 kW=1 PF=0.95
New Load.LOAD177_95 Phases=1 Bus1=177_2012.2 kV=0.23 kW=1 PF=0.95
New Load.LOAD177_96 Phases=1 Bus1=177_2013.2 kV=0.23 kW=1 PF=0.95
New Load.LOAD177_97 Phases=1 Bus1=177_2014.2 kV=0.23 kW=1 PF=0.95
New Load.LOAD177_98 Phases=1 Bus1=177_2015.2 kV=0.23 kW=1 PF=0.95
New Load.LOAD177_99 Phases=1 Bus1=177_2029.2 kV=0.23 kW=1 PF=0.95
New Load.LOAD177_100 Phases=1 Bus1=177_2034.2 kV=0.23 kW=1 PF=0.95
New Load.LOAD177_101 Phases=1 Bus1=177_2163.2 kV=0.23 kW=1 PF=0.95
New Load.LOAD177_102 Phases=1 Bus1=177_2246.3 kV=0.23 kW=1 PF=0.95
New Load.LOAD177_103 Phases=1 Bus1=177_2253.1 kV=0.23 kW=1 PF=0.95
New Load.LOAD177_104 Phases=1 Bus1=177_2254.3 kV=0.23 kW=1 PF=0.95
New Load.LOAD177_105 Phases=1 Bus1=177_2255.3 kV=0.23 kW=1 PF=0.95
New Load.LOAD177_106 Phases=1 Bus1=177_2256.3 kV=0.23 kW=1 PF=0.95
New Load.LOAD177_107 Phases=1 Bus1=177_2257.3 kV=0.23 kW=1 PF=0.95
New Load.LOAD177_108 Phases=1 Bus1=177_2258.3 kV=0.23 kW=1 PF=0.95
New Load.LOAD177_109 Phases=1 Bus1=177_2259.3 kV=0.23 kW=1 PF=0.95
New Load.LOAD177_110 Phases=1 Bus1=177_2260.3 kV=0.23 kW=1 PF=0.95
New Load.LOAD177_111 Phases=1 Bus1=177_2261.3 kV=0.23 kW=1 PF=0.95
New Load.LOAD177_112 Phases=1 Bus1=177_2262.3 kV=0.23 kW=1 PF=0.95
New Load.LOAD177_113 Phases=1 Bus1=177_2263.3 kV=0.23 kW=1 PF=0.95
New Load.LOAD177_114 Phases=1 Bus1=177_2264.3 kV=0.23 kW=1 PF=0.95
New Load.LOAD177_115 Phases=1 Bus1=177_2265.3 kV=0.23 kW=1 PF=0.95
New Load.LOAD177_116 Phases=1 Bus1=177_2266.3 kV=0.23 kW=1 PF=0.95
New Load.LOAD177_117 Phases=1 Bus1=177_2267.3 kV=0.23 kW=1 PF=0.95
New Load.LOAD177_118 Phases=1 Bus1=177_2268.3 kV=0.23 kW=1 PF=0.95
New Load.LOAD177_119 Phases=1 Bus1=177_2269.3 kV=0.23 kW=1 PF=0.95
New Load.LOAD177_120 Phases=1 Bus1=177_2301.2 kV=0.23 kW=1 PF=0.95
New Load.LOAD177_121 Phases=1 Bus1=177_2430.3 kV=0.23 kW=1 PF=0.95
