New Transformer.TR1 Buses=[Sourcebus 11] Conns=[Delta Wye] kVs=[11 0.416] r=1.68965 x=6.2128 kVAs=[800 800]
	
	
	
	
	

	



