New Line.LINE1 Bus1=1 Bus2=2 phases=3 Linecode=3c_300_SAC_XC Length=0.91328 Units=m
New Line.LINE2 Bus1=2 Bus2=3 phases=3 Linecode=3c_300_SAC_XC Length=0.21662 Units=m
New Line.LINE3 Bus1=3 Bus2=4 phases=3 Linecode=3c_300_SAC_XC Length=0.049245 Units=m
New Line.LINE4 Bus1=4 Bus2=5 phases=3 Linecode=3c_300_SAC_XC Length=0.049648 Units=m
New Line.LINE5 Bus1=5 Bus2=6 phases=3 Linecode=3c_300_SAC_XC Length=0.05099 Units=m
New Line.LINE6 Bus1=6 Bus2=7 phases=3 Linecode=3c_300_SAC_XC Length=0.030529 Units=m
New Line.LINE7 Bus1=7 Bus2=8 phases=3 Linecode=3c_300_SAC_XC Length=0.050695 Units=m
New Line.LINE8 Bus1=8 Bus2=9 phases=3 Linecode=3c_300_SAC_XC Length=0.048836 Units=m
New Line.LINE9 Bus1=9 Bus2=10 phases=3 Linecode=3c_300_SAC_XC Length=0.053085 Units=m
New Line.LINE10 Bus1=10 Bus2=11 phases=3 Linecode=3c_300_SAC_XC Length=0.48853 Units=m
New Line.LINE11 Bus1=11 Bus2=12 phases=3 Linecode=3c_300_SAC_XC Length=2.0977 Units=m
New Line.LINE12 Bus1=12 Bus2=13 phases=3 Linecode=3c_300_SAC_XC Length=0.050328 Units=m
New Line.LINE13 Bus1=13 Bus2=14 phases=3 Linecode=3c_300_SAC_XC Length=0.051106 Units=m
New Line.LINE14 Bus1=14 Bus2=15 phases=3 Linecode=3c_300_SAC_XC Length=0.05033 Units=m
New Line.LINE15 Bus1=15 Bus2=16 phases=3 Linecode=3c_300_SAC_XC Length=0.051225 Units=m
New Line.LINE16 Bus1=16 Bus2=17 phases=3 Linecode=3c_300_SAC_XC Length=0.05012 Units=m
New Line.LINE17 Bus1=17 Bus2=18 phases=3 Linecode=3c_300_SAC_XC Length=0.051547 Units=m
New Line.LINE18 Bus1=18 Bus2=19 phases=3 Linecode=3c_300_SAC_XC Length=0.050486 Units=m
New Line.LINE19 Bus1=19 Bus2=20 phases=3 Linecode=3c_300_SAC_XC Length=0.051088 Units=m
New Line.LINE20 Bus1=20 Bus2=21 phases=3 Linecode=3c_300_SAC_XC Length=0.050219 Units=m
New Line.LINE21 Bus1=21 Bus2=22 phases=3 Linecode=3c_300_SAC_XC Length=3.8329 Units=m
New Line.LINE22 Bus1=22 Bus2=23 phases=3 Linecode=3c_300_SAC_XC Length=2.2753 Units=m
New Line.LINE23 Bus1=23 Bus2=24 phases=3 Linecode=3c_300_SAC_XC Length=1.1592 Units=m
New Line.LINE24 Bus1=24 Bus2=25 phases=3 Linecode=3c_300_SAC_XC Length=0.34122 Units=m
New Line.LINE25 Bus1=25 Bus2=26 phases=3 Linecode=3c_300_SAC_XC Length=3.7003 Units=m
New Line.LINE26 Bus1=26 Bus2=27 phases=3 Linecode=3c_300_SAC_XC Length=6.2992 Units=m
New Line.LINE27 Bus1=27 Bus2=28 phases=3 Linecode=3c_300_SAC_XC Length=1.3909 Units=m
New Line.LINE28 Bus1=28 Bus2=29 phases=3 Linecode=3c_300_SAC_XC Length=0.42614 Units=m
New Line.LINE29 Bus1=29 Bus2=30 phases=3 Linecode=3c_300_SAC_XC Length=1.5037 Units=m
New Line.LINE30 Bus1=30 Bus2=31 phases=3 Linecode=3c_300_SAC_XC Length=1.4102 Units=m
New Line.LINE31 Bus1=31 Bus2=32 phases=3 Linecode=3c_300_SAC_XC Length=1.1983 Units=m
New Line.LINE32 Bus1=32 Bus2=33 phases=3 Linecode=3c_300_SAC_XC Length=1.0562 Units=m
New Line.LINE33 Bus1=33 Bus2=34 phases=3 Linecode=4c_.5_SAC Length=4.2681 Units=m
New Line.LINE34 Bus1=34 Bus2=35 phases=3 Linecode=4c_.5_SAC Length=0.18122 Units=m
New Line.LINE35 Bus1=35 Bus2=36 phases=3 Linecode=4c_.5_SAC Length=0.2064 Units=m
New Line.LINE36 Bus1=36 Bus2=37 phases=3 Linecode=4c_.5_SAC Length=0.14235 Units=m
New Line.LINE37 Bus1=37 Bus2=38 phases=3 Linecode=4c_.5_SAC Length=0.11404 Units=m
New Line.LINE38 Bus1=38 Bus2=39 phases=3 Linecode=4c_.5_SAC Length=0.21602 Units=m
New Line.LINE39 Bus1=39 Bus2=40 phases=3 Linecode=4c_.5_SAC Length=0.11609 Units=m
New Line.LINE40 Bus1=40 Bus2=41 phases=3 Linecode=4c_.5_SAC Length=1.315 Units=m
New Line.LINE41 Bus1=41 Bus2=42 phases=3 Linecode=4c_.5_SAC Length=0.36735 Units=m
New Line.LINE42 Bus1=42 Bus2=43 phases=3 Linecode=4c_.5_SAC Length=0.1492 Units=m
New Line.LINE43 Bus1=43 Bus2=44 phases=3 Linecode=4c_.5_SAC Length=0.15486 Units=m
New Line.LINE44 Bus1=44 Bus2=45 phases=3 Linecode=3c_300_ASN Length=0.1092 Units=m
New Line.LINE45 Bus1=45 Bus2=46 phases=3 Linecode=3c_300_ASN Length=5.1398 Units=m
New Line.LINE46 Bus1=46 Bus2=47 phases=3 Linecode=3c_300_ASN Length=0.48974 Units=m
New Line.LINE47 Bus1=47 Bus2=48 phases=3 Linecode=3c_300_ASN Length=0.073783 Units=m
New Line.LINE48 Bus1=48 Bus2=49 phases=3 Linecode=3c_300_ASN Length=0.15322 Units=m
New Line.LINE49 Bus1=49 Bus2=50 phases=3 Linecode=3c_300_ASN Length=0.31244 Units=m
New Line.LINE50 Bus1=50 Bus2=51 phases=3 Linecode=3c_300_ASN Length=0.296 Units=m
New Line.LINE51 Bus1=51 Bus2=52 phases=3 Linecode=3c_300_ASN Length=0.29352 Units=m
New Line.LINE52 Bus1=52 Bus2=53 phases=3 Linecode=3c_300_ASN Length=1.6454 Units=m
New Line.LINE53 Bus1=53 Bus2=54 phases=3 Linecode=3c_300_ASN Length=6.8101 Units=m
New Line.LINE54 Bus1=54 Bus2=55 phases=3 Linecode=3c_300_ASN Length=3.4174 Units=m
New Line.LINE55 Bus1=55 Bus2=56 phases=3 Linecode=3c_300_ASN Length=1.3612 Units=m
New Line.LINE56 Bus1=56 Bus2=57 phases=3 Linecode=3c_300_ASN Length=1.6055 Units=m
New Line.LINE57 Bus1=57 Bus2=58 phases=3 Linecode=3c_300_ASN Length=10.9314 Units=m
New Line.LINE58 Bus1=58 Bus2=59 phases=3 Linecode=3c_300_ASN Length=5.1598 Units=m
New Line.LINE59 Bus1=59 Bus2=60 phases=3 Linecode=3c_300_ASN Length=7.9397 Units=m
New Line.LINE60 Bus1=60 Bus2=61 phases=3 Linecode=3c_300_ASN Length=0.26156 Units=m
New Line.LINE61 Bus1=61 Bus2=62 phases=3 Linecode=3c_300_ASN Length=0.302 Units=m
New Line.LINE62 Bus1=62 Bus2=63 phases=3 Linecode=3c_300_ASN Length=0.43051 Units=m
New Line.LINE63 Bus1=63 Bus2=64 phases=3 Linecode=3c_300_ASN Length=0.82013 Units=m
New Line.LINE64 Bus1=64 Bus2=65 phases=3 Linecode=3c_300_ASN Length=0.90424 Units=m
New Line.LINE65 Bus1=65 Bus2=66 phases=3 Linecode=3c_300_ASN Length=0.883 Units=m
New Line.LINE66 Bus1=66 Bus2=67 phases=3 Linecode=3c_300_ASN Length=0.56376 Units=m
New Line.LINE67 Bus1=67 Bus2=68 phases=3 Linecode=3c_300_ASN Length=0.41398 Units=m
New Line.LINE68 Bus1=68 Bus2=69 phases=3 Linecode=3c_300_ASN Length=0.30011 Units=m
New Line.LINE69 Bus1=69 Bus2=70 phases=3 Linecode=3c_300_ASN Length=0.69498 Units=m
New Line.LINE70 Bus1=70 Bus2=71 phases=3 Linecode=3c_300_ASN Length=5.603 Units=m
New Line.LINE71 Bus1=71 Bus2=72 phases=3 Linecode=3c_300_ASN Length=0.17498 Units=m
New Line.LINE72 Bus1=72 Bus2=73 phases=3 Linecode=3c_300_ASN Length=0.20442 Units=m
New Line.LINE73 Bus1=73 Bus2=74 phases=3 Linecode=3c_300_ASN Length=0.37357 Units=m
New Line.LINE74 Bus1=74 Bus2=75 phases=3 Linecode=3c_300_ASN Length=0.7922 Units=m
New Line.LINE75 Bus1=75 Bus2=76 phases=3 Linecode=3c_300_ASN Length=0.54313 Units=m
New Line.LINE76 Bus1=76 Bus2=77 phases=3 Linecode=3c_300_ASN Length=0.25639 Units=m
New Line.LINE77 Bus1=77 Bus2=78 phases=3 Linecode=3c_300_ASN Length=0.37768 Units=m
New Line.LINE78 Bus1=78 Bus2=79 phases=3 Linecode=3c_300_ASN Length=0.17494 Units=m
New Line.LINE79 Bus1=79 Bus2=80 phases=3 Linecode=3c_300_ASN Length=0.14863 Units=m
New Line.LINE80 Bus1=80 Bus2=81 phases=3 Linecode=3c_300_ASN Length=0.10847 Units=m
New Line.LINE81 Bus1=81 Bus2=82 phases=3 Linecode=3c_300_ASN Length=0.153 Units=m
New Line.LINE82 Bus1=82 Bus2=83 phases=3 Linecode=3c_300_ASN Length=0.53701 Units=m
New Line.LINE83 Bus1=83 Bus2=84 phases=3 Linecode=3c_300_ASN Length=0.53661 Units=m
New Line.LINE84 Bus1=83 Bus2=85 phases=3 Linecode=3c_300_ASN Length=1.658 Units=m
New Line.LINE85 Bus1=84 Bus2=86 phases=3 Linecode=3c_300_ASN Length=0.21602 Units=m
New Line.LINE86 Bus1=85 Bus2=87 phases=3 Linecode=3c_95_SAC_XC Length=1.3625 Units=m
New Line.LINE89 Bus1=86 Bus2=90 phases=3 Linecode=3c_300_ASN Length=0.27809 Units=m
New Line.LINE90 Bus1=87 Bus2=91 phases=3 Linecode=3c_95_SAC_XC Length=0.32146 Units=m
New Line.LINE93 Bus1=90 Bus2=94 phases=3 Linecode=3c_300_ASN Length=0.063064 Units=m
New Line.LINE94 Bus1=91 Bus2=95 phases=3 Linecode=3c_95_SAC_XC Length=0.058189 Units=m
New Line.LINE97 Bus1=94 Bus2=98 phases=3 Linecode=3c_300_ASN Length=0.076368 Units=m
New Line.LINE98 Bus1=95 Bus2=99 phases=3 Linecode=3c_95_SAC_XC Length=0.1186 Units=m
New Line.LINE101 Bus1=98 Bus2=102 phases=3 Linecode=3c_300_ASN Length=0.15352 Units=m
New Line.LINE102 Bus1=99 Bus2=103 phases=3 Linecode=3c_95_SAC_XC Length=0.043566 Units=m
New Line.LINE105 Bus1=102 Bus2=106 phases=3 Linecode=3c_300_ASN Length=0.05906 Units=m
New Line.LINE106 Bus1=103 Bus2=107 phases=3 Linecode=3c_95_SAC_XC Length=0.034176 Units=m
New Line.LINE108 Bus1=106 Bus2=109 phases=3 Linecode=3c_300_ASN Length=0.053934 Units=m
New Line.LINE109 Bus1=107 Bus2=110 phases=3 Linecode=3c_95_SAC_XC Length=0.03662 Units=m
New Line.LINE111 Bus1=109 Bus2=112 phases=3 Linecode=3c_300_ASN Length=0.084025 Units=m
New Line.LINE112 Bus1=110 Bus2=113 phases=3 Linecode=3c_95_SAC_XC Length=0.033121 Units=m
New Line.LINE114 Bus1=112 Bus2=115 phases=3 Linecode=3c_300_ASN Length=0.05994 Units=m
New Line.LINE115 Bus1=113 Bus2=116 phases=3 Linecode=3c_95_SAC_XC Length=4.6618 Units=m
New Line.LINE117 Bus1=115 Bus2=118 phases=3 Linecode=3c_300_ASN Length=0.043831 Units=m
New Line.LINE118 Bus1=116 Bus2=119 phases=3 Linecode=3c_95_SAC_XC Length=0.33549 Units=m
New Line.LINE120 Bus1=118 Bus2=121 phases=3 Linecode=3c_300_ASN Length=0.05281 Units=m
New Line.LINE121 Bus1=119 Bus2=122 phases=3 Linecode=3c_95_SAC_XC Length=0.14142 Units=m
New Line.LINE123 Bus1=121 Bus2=124 phases=3 Linecode=3c_300_ASN Length=0.055326 Units=m
New Line.LINE124 Bus1=122 Bus2=125 phases=3 Linecode=3c_95_SAC_XC Length=0.16148 Units=m
New Line.LINE126 Bus1=124 Bus2=127 phases=3 Linecode=3c_300_ASN Length=0.10118 Units=m
New Line.LINE127 Bus1=125 Bus2=128 phases=3 Linecode=3c_95_SAC_XC Length=5.6887 Units=m
New Line.LINE129 Bus1=127 Bus2=130 phases=3 Linecode=3c_300_ASN Length=0.24235 Units=m
New Line.LINE130 Bus1=128 Bus2=131 phases=3 Linecode=3c_95_SAC_XC Length=1.5985 Units=m
New Line.LINE132 Bus1=130 Bus2=133 phases=3 Linecode=3c_300_ASN Length=0.18444 Units=m
New Line.LINE133 Bus1=131 Bus2=134 phases=3 Linecode=3c_95_SAC_XC Length=0.78714 Units=m
New Line.LINE135 Bus1=133 Bus2=136 phases=3 Linecode=3c_300_ASN Length=0.1514 Units=m
New Line.LINE136 Bus1=134 Bus2=137 phases=3 Linecode=3c_95_SAC_XC Length=0.63562 Units=m
New Line.LINE138 Bus1=136 Bus2=139 phases=3 Linecode=3c_300_ASN Length=0.17058 Units=m
New Line.LINE139 Bus1=137 Bus2=140 phases=3 Linecode=3c_95_SAC_XC Length=1.137 Units=m
New Line.LINE141 Bus1=139 Bus2=142 phases=3 Linecode=3c_300_ASN Length=0.13952 Units=m
New Line.LINE142 Bus1=140 Bus2=143 phases=3 Linecode=3c_95_SAC_XC Length=0.98794 Units=m
New Line.LINE144 Bus1=142 Bus2=145 phases=3 Linecode=3c_300_ASN Length=0.2464 Units=m
New Line.LINE145 Bus1=143 Bus2=146 phases=3 Linecode=3c_95_SAC_XC Length=2.1269 Units=m
New Line.LINE147 Bus1=145 Bus2=148 phases=3 Linecode=3c_300_ASN Length=0.3118 Units=m
New Line.LINE148 Bus1=146 Bus2=149 phases=3 Linecode=3c_95_SAC_XC Length=2.1146 Units=m
New Line.LINE150 Bus1=148 Bus2=151 phases=3 Linecode=3c_300_ASN Length=0.17381 Units=m
New Line.LINE151 Bus1=149 Bus2=152 phases=3 Linecode=3c_95_SAC_XC Length=3.2357 Units=m
New Line.LINE153 Bus1=151 Bus2=154 phases=3 Linecode=3c_300_ASN Length=0.197 Units=m
New Line.LINE154 Bus1=152 Bus2=155 phases=3 Linecode=3c_95_SAC_XC Length=2.4867 Units=m
New Line.LINE156 Bus1=154 Bus2=157 phases=3 Linecode=3c_300_ASN Length=0.37 Units=m
New Line.LINE157 Bus1=155 Bus2=158 phases=3 Linecode=3c_95_SAC_XC Length=0.41233 Units=m
New Line.LINE159 Bus1=157 Bus2=160 phases=3 Linecode=3c_300_ASN Length=0.35285 Units=m
New Line.LINE160 Bus1=158 Bus2=161 phases=3 Linecode=3c_95_SAC_XC Length=0.13994 Units=m
New Line.LINE162 Bus1=160 Bus2=163 phases=3 Linecode=3c_300_ASN Length=2.197 Units=m
New Line.LINE163 Bus1=161 Bus2=164 phases=3 Linecode=3c_95_SAC_XC Length=0.14599 Units=m
New Line.LINE165 Bus1=163 Bus2=166 phases=3 Linecode=3c_300_ASN Length=1.0988 Units=m
New Line.LINE167 Bus1=164 Bus2=168 phases=3 Linecode=3c_95_SAC_XC Length=0.14697 Units=m
New Line.LINE168 Bus1=165 Bus2=169 phases=3 Linecode=25_SAC_XC Length=5.6614 Units=m
New Line.LINE169 Bus1=165 Bus2=170 phases=3 Linecode=3c_300_ASN Length=0.20303 Units=m
New Line.LINE170 Bus1=166 Bus2=171 phases=3 Linecode=4c_.5 Length=2.0328 Units=m
New Line.LINE172 Bus1=168 Bus2=173 phases=3 Linecode=3c_95_SAC_XC Length=0.49477 Units=m
New Line.LINE173 Bus1=170 Bus2=174 phases=3 Linecode=3c_300_ASN Length=2.3543 Units=m
New Line.LINE175 Bus1=171 Bus2=176 phases=3 Linecode=4c_.5 Length=1.5836 Units=m
New Line.LINE178 Bus1=173 Bus2=179 phases=3 Linecode=3c_95_SAC_XC Length=1.6762 Units=m
New Line.LINE179 Bus1=174 Bus2=180 phases=3 Linecode=3c_300_ASN Length=4.0194 Units=m
New Line.LINE181 Bus1=176 Bus2=182 phases=3 Linecode=4c_.5 Length=1.3266 Units=m
New Line.LINE184 Bus1=179 Bus2=185 phases=3 Linecode=25_SAC_XC Length=21.259 Units=m
New Line.LINE185 Bus1=180 Bus2=186 phases=3 Linecode=3c_300_ASN Length=2.6834 Units=m
New Line.LINE187 Bus1=182 Bus2=188 phases=3 Linecode=4c_.5 Length=0.29461 Units=m
New Line.LINE190 Bus1=186 Bus2=191 phases=3 Linecode=3c_300_ASN Length=2.0702 Units=m
New Line.LINE192 Bus1=188 Bus2=193 phases=3 Linecode=4c_.5 Length=0.27502 Units=m
New Line.LINE194 Bus1=191 Bus2=195 phases=3 Linecode=3c_300_ASN Length=1.6502 Units=m
New Line.LINE196 Bus1=193 Bus2=197 phases=3 Linecode=4c_.5 Length=0.77384 Units=m
New Line.LINE198 Bus1=195 Bus2=199 phases=3 Linecode=3c_300_ASN Length=0.25229 Units=m
New Line.LINE200 Bus1=197 Bus2=201 phases=3 Linecode=4c_.5 Length=0.71782 Units=m
New Line.LINE202 Bus1=199 Bus2=203 phases=3 Linecode=3c_300_ASN Length=0.2063 Units=m
New Line.LINE204 Bus1=201 Bus2=205 phases=3 Linecode=4c_.5 Length=0.29811 Units=m
New Line.LINE206 Bus1=203 Bus2=207 phases=3 Linecode=3c_300_ASN Length=0.10604 Units=m
New Line.LINE208 Bus1=205 Bus2=209 phases=3 Linecode=4c_.5 Length=0.27273 Units=m
New Line.LINE210 Bus1=207 Bus2=211 phases=3 Linecode=3c_300_ASN Length=0.090471 Units=m
New Line.LINE212 Bus1=209 Bus2=213 phases=3 Linecode=4c_.5 Length=0.23408 Units=m
New Line.LINE214 Bus1=211 Bus2=215 phases=3 Linecode=3c_300_ASN Length=0.10576 Units=m
New Line.LINE216 Bus1=213 Bus2=217 phases=3 Linecode=4c_.5 Length=0.19958 Units=m
New Line.LINE218 Bus1=215 Bus2=219 phases=3 Linecode=3c_300_ASN Length=0.15447 Units=m
New Line.LINE220 Bus1=217 Bus2=221 phases=3 Linecode=4c_.5 Length=0.23139 Units=m
New Line.LINE222 Bus1=219 Bus2=223 phases=3 Linecode=3c_300_ASN Length=0.98957 Units=m
New Line.LINE224 Bus1=221 Bus2=225 phases=3 Linecode=4c_.5 Length=0.18949 Units=m
New Line.LINE226 Bus1=223 Bus2=227 phases=3 Linecode=4c_.25 Length=0.4869 Units=m
New Line.LINE228 Bus1=225 Bus2=229 phases=3 Linecode=4c_.5 Length=0.43664 Units=m
New Line.LINE230 Bus1=227 Bus2=231 phases=3 Linecode=4c_.25 Length=9.3373 Units=m
New Line.LINE232 Bus1=229 Bus2=233 phases=3 Linecode=4c_.5 Length=0.74995 Units=m
New Line.LINE234 Bus1=231 Bus2=235 phases=3 Linecode=4c_.25 Length=5.2983 Units=m
New Line.LINE236 Bus1=233 Bus2=237 phases=3 Linecode=4c_.5 Length=0.60976 Units=m
New Line.LINE238 Bus1=235 Bus2=239 phases=3 Linecode=4c_.25 Length=2.6105 Units=m
New Line.LINE240 Bus1=237 Bus2=241 phases=3 Linecode=4c_.5 Length=0.51301 Units=m
New Line.LINE242 Bus1=239 Bus2=243 phases=3 Linecode=4c_.25 Length=0.12366 Units=m
New Line.LINE244 Bus1=241 Bus2=245 phases=3 Linecode=4c_.5 Length=0.62386 Units=m
New Line.LINE247 Bus1=243 Bus2=248 phases=3 Linecode=4c_.25 Length=2.9637 Units=m
New Line.LINE249 Bus1=245 Bus2=250 phases=3 Linecode=4c_.5 Length=18.5448 Units=m
New Line.LINE252 Bus1=248 Bus2=253 phases=3 Linecode=4c_.25 Length=2.8391 Units=m
New Line.LINE255 Bus1=250 Bus2=256 phases=3 Linecode=4c_.5 Length=3.5062 Units=m
New Line.LINE258 Bus1=253 Bus2=259 phases=3 Linecode=4c_.25 Length=1.9953 Units=m
New Line.LINE262 Bus1=256 Bus2=263 phases=3 Linecode=4c_.5 Length=2.5802 Units=m
New Line.LINE263 Bus1=256 Bus2=264 phases=3 Linecode=4c_.5 Length=1.7656 Units=m
New Line.LINE265 Bus1=259 Bus2=266 phases=3 Linecode=4c_.25 Length=1.0563 Units=m
New Line.LINE269 Bus1=263 Bus2=270 phases=3 Linecode=4c_.5 Length=16.1012 Units=m
New Line.LINE272 Bus1=264 Bus2=273 phases=3 Linecode=25_SAC_XC Length=9.6855 Units=m
New Line.LINE274 Bus1=266 Bus2=275 phases=3 Linecode=4c_.25 Length=3.684 Units=m
New Line.LINE279 Bus1=270 Bus2=280 phases=3 Linecode=4c_.5 Length=2.2867 Units=m
New Line.LINE281 Bus1=275 Bus2=282 phases=3 Linecode=4c_.25 Length=3.6839 Units=m
New Line.LINE288 Bus1=280 Bus2=289 phases=3 Linecode=25_SAC_XC Length=7.0918 Units=m
New Line.LINE290 Bus1=282 Bus2=291 phases=3 Linecode=4c_.25 Length=3.9041 Units=m
New Line.LINE296 Bus1=291 Bus2=297 phases=3 Linecode=4c_.25 Length=0.40082 Units=m
New Line.LINE300 Bus1=297 Bus2=301 phases=3 Linecode=4c_.25 Length=0.74509 Units=m
New Line.LINE304 Bus1=301 Bus2=305 phases=3 Linecode=4c_.25 Length=0.42186 Units=m
New Line.LINE308 Bus1=305 Bus2=309 phases=3 Linecode=4c_.25 Length=0.18173 Units=m
New Line.LINE312 Bus1=309 Bus2=313 phases=3 Linecode=4c_.25 Length=0.1244 Units=m
New Line.LINE316 Bus1=313 Bus2=317 phases=3 Linecode=4c_.25 Length=0.21598 Units=m
New Line.LINE319 Bus1=317 Bus2=320 phases=3 Linecode=4c_.25 Length=0.11569 Units=m
New Line.LINE322 Bus1=320 Bus2=323 phases=3 Linecode=4c_.25 Length=0.13396 Units=m
New Line.LINE325 Bus1=323 Bus2=326 phases=3 Linecode=4c_.25 Length=0.1195 Units=m
New Line.LINE328 Bus1=326 Bus2=329 phases=3 Linecode=4c_.25 Length=0.1558 Units=m
New Line.LINE331 Bus1=329 Bus2=332 phases=3 Linecode=4c_.25 Length=0.51718 Units=m
New Line.LINE334 Bus1=332 Bus2=335 phases=3 Linecode=4c_.25 Length=1.4163 Units=m
New Line.LINE337 Bus1=335 Bus2=338 phases=3 Linecode=4c_.25 Length=0.15264 Units=m
New Line.LINE340 Bus1=338 Bus2=341 phases=3 Linecode=4c_.25 Length=0.12822 Units=m
New Line.LINE343 Bus1=341 Bus2=344 phases=3 Linecode=4c_.25 Length=0.11229 Units=m
New Line.LINE346 Bus1=344 Bus2=347 phases=3 Linecode=4c_.25 Length=0.14959 Units=m
New Line.LINE349 Bus1=347 Bus2=350 phases=3 Linecode=4c_.25 Length=0.068621 Units=m
New Line.LINE352 Bus1=350 Bus2=353 phases=3 Linecode=4c_.25 Length=0.073248 Units=m
New Line.LINE357 Bus1=353 Bus2=358 phases=3 Linecode=4c_.25 Length=0.092265 Units=m
New Line.LINE362 Bus1=358 Bus2=363 phases=3 Linecode=4c_.25 Length=0.075007 Units=m
New Line.LINE367 Bus1=363 Bus2=368 phases=3 Linecode=4c_.25 Length=0.10532 Units=m
New Line.LINE372 Bus1=368 Bus2=373 phases=3 Linecode=4c_.25 Length=1.866 Units=m
New Line.LINE377 Bus1=373 Bus2=378 phases=3 Linecode=4c_.25 Length=6.2002 Units=m
New Line.LINE383 Bus1=378 Bus2=384 phases=3 Linecode=4c_.25 Length=8.065 Units=m
New Line.LINE389 Bus1=384 Bus2=390 phases=3 Linecode=4c_.25 Length=2.085 Units=m
New Line.LINE394 Bus1=390 Bus2=395 phases=3 Linecode=4c_.25 Length=0.68757 Units=m
New Line.LINE398 Bus1=395 Bus2=399 phases=3 Linecode=4c_.25 Length=11.4421 Units=m
New Line.LINE402 Bus1=399 Bus2=403 phases=3 Linecode=4c_.25 Length=0.76007 Units=m
New Line.LINE406 Bus1=403 Bus2=407 phases=3 Linecode=4c_.3 Length=0.94869 Units=m
New Line.LINE410 Bus1=407 Bus2=411 phases=3 Linecode=4c_.3 Length=0.26927 Units=m
New Line.LINE414 Bus1=411 Bus2=415 phases=3 Linecode=4c_.3 Length=0.26162 Units=m
New Line.LINE418 Bus1=415 Bus2=419 phases=3 Linecode=4c_.3 Length=2.8323 Units=m
New Line.LINE423 Bus1=419 Bus2=424 phases=3 Linecode=4c_.3 Length=0.21768 Units=m
New Line.LINE427 Bus1=424 Bus2=428 phases=3 Linecode=4c_.3 Length=0.091081 Units=m
New Line.LINE431 Bus1=428 Bus2=432 phases=3 Linecode=4c_.3 Length=0.045011 Units=m
New Line.LINE435 Bus1=432 Bus2=436 phases=3 Linecode=4c_.3 Length=0.043739 Units=m
New Line.LINE439 Bus1=436 Bus2=440 phases=3 Linecode=4c_.3 Length=0.40786 Units=m
New Line.LINE443 Bus1=440 Bus2=444 phases=3 Linecode=4c_.3 Length=0.32654 Units=m
New Line.LINE447 Bus1=444 Bus2=448 phases=3 Linecode=4c_.3 Length=0.089184 Units=m
New Line.LINE451 Bus1=448 Bus2=452 phases=3 Linecode=4c_.3 Length=0.098153 Units=m
New Line.LINE456 Bus1=452 Bus2=457 phases=3 Linecode=4c_.3 Length=0.154 Units=m
New Line.LINE461 Bus1=457 Bus2=462 phases=3 Linecode=4c_.3 Length=0.29533 Units=m
New Line.LINE466 Bus1=462 Bus2=467 phases=3 Linecode=4c_.06 Length=0.19898 Units=m
New Line.LINE472 Bus1=467 Bus2=473 phases=3 Linecode=4c_.06 Length=0.068007 Units=m
New Line.LINE478 Bus1=473 Bus2=479 phases=3 Linecode=4c_.06 Length=0.078 Units=m
New Line.LINE484 Bus1=479 Bus2=485 phases=3 Linecode=4c_.06 Length=0.11344 Units=m
New Line.LINE489 Bus1=485 Bus2=490 phases=3 Linecode=4c_.06 Length=0.2597 Units=m
New Line.LINE494 Bus1=490 Bus2=495 phases=3 Linecode=25_SAC_XC Length=6.3095 Units=m
New Line.LINE495 Bus1=490 Bus2=496 phases=3 Linecode=25_SAC_XC Length=7.2825 Units=m
New Line.LINE496 Bus1=490 Bus2=497 phases=3 Linecode=25_SAC_XC Length=7.2825 Units=m
New Line.LINECmpd_0 Bus1=85 Bus2=165 phases=3 Linecode=3c_300_ASN Length=49.43965 Units=m
