New Line.LINE104_1 Bus1=104_1 Bus2=104_2 phases=3 Linecode=3c_300_SAC_XC Length=0.91328 Units=m
New Line.LINE104_2 Bus1=104_2 Bus2=104_3 phases=3 Linecode=3c_300_SAC_XC Length=0.21662 Units=m
New Line.LINE104_3 Bus1=104_3 Bus2=104_4 phases=3 Linecode=3c_300_SAC_XC Length=0.049245 Units=m
New Line.LINE104_4 Bus1=104_4 Bus2=104_5 phases=3 Linecode=3c_300_SAC_XC Length=0.049648 Units=m
New Line.LINE104_5 Bus1=104_5 Bus2=104_6 phases=3 Linecode=3c_300_SAC_XC Length=0.05099 Units=m
New Line.LINE104_6 Bus1=104_6 Bus2=104_7 phases=3 Linecode=3c_300_SAC_XC Length=0.030529 Units=m
New Line.LINE104_7 Bus1=104_7 Bus2=104_8 phases=3 Linecode=3c_300_SAC_XC Length=0.050695 Units=m
New Line.LINE104_8 Bus1=104_8 Bus2=104_9 phases=3 Linecode=3c_300_SAC_XC Length=0.048836 Units=m
New Line.LINE104_9 Bus1=104_9 Bus2=104_10 phases=3 Linecode=3c_300_SAC_XC Length=0.053085 Units=m
New Line.LINE104_10 Bus1=104_10 Bus2=104_11 phases=3 Linecode=3c_300_SAC_XC Length=0.48853 Units=m
New Line.LINE104_11 Bus1=104_11 Bus2=104_12 phases=3 Linecode=3c_300_SAC_XC Length=2.0977 Units=m
New Line.LINE104_12 Bus1=104_12 Bus2=104_13 phases=3 Linecode=3c_300_SAC_XC Length=0.050328 Units=m
New Line.LINE104_13 Bus1=104_13 Bus2=104_14 phases=3 Linecode=3c_300_SAC_XC Length=0.051106 Units=m
New Line.LINE104_14 Bus1=104_14 Bus2=104_15 phases=3 Linecode=3c_300_SAC_XC Length=0.05033 Units=m
New Line.LINE104_15 Bus1=104_15 Bus2=104_16 phases=3 Linecode=3c_300_SAC_XC Length=0.051225 Units=m
New Line.LINE104_16 Bus1=104_16 Bus2=104_17 phases=3 Linecode=3c_300_SAC_XC Length=0.05012 Units=m
New Line.LINE104_17 Bus1=104_17 Bus2=104_18 phases=3 Linecode=3c_300_SAC_XC Length=0.051547 Units=m
New Line.LINE104_18 Bus1=104_18 Bus2=104_19 phases=3 Linecode=3c_300_SAC_XC Length=0.050486 Units=m
New Line.LINE104_19 Bus1=104_19 Bus2=104_20 phases=3 Linecode=3c_300_SAC_XC Length=0.051088 Units=m
New Line.LINE104_20 Bus1=104_20 Bus2=104_21 phases=3 Linecode=3c_300_SAC_XC Length=0.050219 Units=m
New Line.LINE104_21 Bus1=104_21 Bus2=104_22 phases=3 Linecode=3c_300_SAC_XC Length=3.8329 Units=m
New Line.LINE104_22 Bus1=104_22 Bus2=104_23 phases=3 Linecode=3c_300_SAC_XC Length=2.2753 Units=m
New Line.LINE104_23 Bus1=104_23 Bus2=104_24 phases=3 Linecode=3c_300_SAC_XC Length=1.1592 Units=m
New Line.LINE104_24 Bus1=104_24 Bus2=104_25 phases=3 Linecode=3c_300_SAC_XC Length=0.34122 Units=m
New Line.LINE104_25 Bus1=104_25 Bus2=104_26 phases=3 Linecode=3c_300_SAC_XC Length=3.7003 Units=m
New Line.LINE104_26 Bus1=104_26 Bus2=104_27 phases=3 Linecode=3c_300_SAC_XC Length=6.2992 Units=m
New Line.LINE104_27 Bus1=104_27 Bus2=104_28 phases=3 Linecode=3c_300_SAC_XC Length=1.3909 Units=m
New Line.LINE104_28 Bus1=104_28 Bus2=104_29 phases=3 Linecode=3c_300_SAC_XC Length=0.42614 Units=m
New Line.LINE104_29 Bus1=104_29 Bus2=104_30 phases=3 Linecode=3c_300_SAC_XC Length=1.5037 Units=m
New Line.LINE104_30 Bus1=104_30 Bus2=104_31 phases=3 Linecode=3c_300_SAC_XC Length=1.4102 Units=m
New Line.LINE104_31 Bus1=104_31 Bus2=104_32 phases=3 Linecode=3c_300_SAC_XC Length=1.1983 Units=m
New Line.LINE104_32 Bus1=104_32 Bus2=104_33 phases=3 Linecode=3c_300_SAC_XC Length=1.0562 Units=m
New Line.LINE104_33 Bus1=104_33 Bus2=104_34 phases=3 Linecode=4c_.5_SAC Length=4.2681 Units=m
New Line.LINE104_34 Bus1=104_34 Bus2=104_35 phases=3 Linecode=4c_.5_SAC Length=0.18122 Units=m
New Line.LINE104_35 Bus1=104_35 Bus2=104_36 phases=3 Linecode=4c_.5_SAC Length=0.2064 Units=m
New Line.LINE104_36 Bus1=104_36 Bus2=104_37 phases=3 Linecode=4c_.5_SAC Length=0.14235 Units=m
New Line.LINE104_37 Bus1=104_37 Bus2=104_38 phases=3 Linecode=4c_.5_SAC Length=0.11404 Units=m
New Line.LINE104_38 Bus1=104_38 Bus2=104_39 phases=3 Linecode=4c_.5_SAC Length=0.21602 Units=m
New Line.LINE104_39 Bus1=104_39 Bus2=104_40 phases=3 Linecode=4c_.5_SAC Length=0.11609 Units=m
New Line.LINE104_40 Bus1=104_40 Bus2=104_41 phases=3 Linecode=4c_.5_SAC Length=1.315 Units=m
New Line.LINE104_41 Bus1=104_41 Bus2=104_42 phases=3 Linecode=4c_.5_SAC Length=0.36735 Units=m
New Line.LINE104_42 Bus1=104_42 Bus2=104_43 phases=3 Linecode=4c_.5_SAC Length=0.1492 Units=m
New Line.LINE104_43 Bus1=104_43 Bus2=104_44 phases=3 Linecode=4c_.5_SAC Length=0.15486 Units=m
New Line.LINE104_44 Bus1=104_44 Bus2=104_45 phases=3 Linecode=3c_300_ASN Length=0.1092 Units=m
New Line.LINE104_45 Bus1=104_45 Bus2=104_46 phases=3 Linecode=3c_300_ASN Length=5.1398 Units=m
New Line.LINE104_46 Bus1=104_46 Bus2=104_47 phases=3 Linecode=3c_300_ASN Length=0.48974 Units=m
New Line.LINE104_47 Bus1=104_47 Bus2=104_48 phases=3 Linecode=3c_300_ASN Length=0.073783 Units=m
New Line.LINE104_48 Bus1=104_48 Bus2=104_49 phases=3 Linecode=3c_300_ASN Length=0.15322 Units=m
New Line.LINE104_49 Bus1=104_49 Bus2=104_50 phases=3 Linecode=3c_300_ASN Length=0.31244 Units=m
New Line.LINE104_50 Bus1=104_50 Bus2=104_51 phases=3 Linecode=3c_300_ASN Length=0.296 Units=m
New Line.LINE104_51 Bus1=104_51 Bus2=104_52 phases=3 Linecode=3c_300_ASN Length=0.29352 Units=m
New Line.LINE104_52 Bus1=104_52 Bus2=104_53 phases=3 Linecode=3c_300_ASN Length=1.6454 Units=m
New Line.LINE104_53 Bus1=104_53 Bus2=104_54 phases=3 Linecode=3c_300_ASN Length=6.8101 Units=m
New Line.LINE104_54 Bus1=104_54 Bus2=104_55 phases=3 Linecode=3c_300_ASN Length=3.4174 Units=m
New Line.LINE104_55 Bus1=104_55 Bus2=104_56 phases=3 Linecode=3c_300_ASN Length=1.3612 Units=m
New Line.LINE104_56 Bus1=104_56 Bus2=104_57 phases=3 Linecode=3c_300_ASN Length=1.6055 Units=m
New Line.LINE104_57 Bus1=104_57 Bus2=104_58 phases=3 Linecode=3c_300_ASN Length=10.9314 Units=m
New Line.LINE104_58 Bus1=104_58 Bus2=104_59 phases=3 Linecode=3c_300_ASN Length=5.1598 Units=m
New Line.LINE104_59 Bus1=104_59 Bus2=104_60 phases=3 Linecode=3c_300_ASN Length=7.9397 Units=m
New Line.LINE104_60 Bus1=104_60 Bus2=104_61 phases=3 Linecode=3c_300_ASN Length=0.26156 Units=m
New Line.LINE104_61 Bus1=104_61 Bus2=104_62 phases=3 Linecode=3c_300_ASN Length=0.302 Units=m
New Line.LINE104_62 Bus1=104_62 Bus2=104_63 phases=3 Linecode=3c_300_ASN Length=0.43051 Units=m
New Line.LINE104_63 Bus1=104_63 Bus2=104_64 phases=3 Linecode=3c_300_ASN Length=0.82013 Units=m
New Line.LINE104_64 Bus1=104_64 Bus2=104_65 phases=3 Linecode=3c_300_ASN Length=0.90424 Units=m
New Line.LINE104_65 Bus1=104_65 Bus2=104_66 phases=3 Linecode=3c_300_ASN Length=0.883 Units=m
New Line.LINE104_66 Bus1=104_66 Bus2=104_67 phases=3 Linecode=3c_300_ASN Length=0.56376 Units=m
New Line.LINE104_67 Bus1=104_67 Bus2=104_68 phases=3 Linecode=3c_300_ASN Length=0.41398 Units=m
New Line.LINE104_68 Bus1=104_68 Bus2=104_69 phases=3 Linecode=3c_300_ASN Length=0.30011 Units=m
New Line.LINE104_69 Bus1=104_69 Bus2=104_70 phases=3 Linecode=3c_300_ASN Length=0.69498 Units=m
New Line.LINE104_70 Bus1=104_70 Bus2=104_71 phases=3 Linecode=3c_300_ASN Length=5.603 Units=m
New Line.LINE104_71 Bus1=104_71 Bus2=104_72 phases=3 Linecode=3c_300_ASN Length=0.17498 Units=m
New Line.LINE104_72 Bus1=104_72 Bus2=104_73 phases=3 Linecode=3c_300_ASN Length=0.20442 Units=m
New Line.LINE104_73 Bus1=104_73 Bus2=104_74 phases=3 Linecode=3c_300_ASN Length=0.37357 Units=m
New Line.LINE104_74 Bus1=104_74 Bus2=104_75 phases=3 Linecode=3c_300_ASN Length=0.7922 Units=m
New Line.LINE104_75 Bus1=104_75 Bus2=104_76 phases=3 Linecode=3c_300_ASN Length=0.54313 Units=m
New Line.LINE104_76 Bus1=104_76 Bus2=104_77 phases=3 Linecode=3c_300_ASN Length=0.25639 Units=m
New Line.LINE104_77 Bus1=104_77 Bus2=104_78 phases=3 Linecode=3c_300_ASN Length=0.37768 Units=m
New Line.LINE104_78 Bus1=104_78 Bus2=104_79 phases=3 Linecode=3c_300_ASN Length=0.17494 Units=m
New Line.LINE104_79 Bus1=104_79 Bus2=104_80 phases=3 Linecode=3c_300_ASN Length=0.14863 Units=m
New Line.LINE104_80 Bus1=104_80 Bus2=104_81 phases=3 Linecode=3c_300_ASN Length=0.10847 Units=m
New Line.LINE104_81 Bus1=104_81 Bus2=104_82 phases=3 Linecode=3c_300_ASN Length=0.153 Units=m
New Line.LINE104_82 Bus1=104_82 Bus2=104_83 phases=3 Linecode=3c_300_ASN Length=0.53701 Units=m
New Line.LINE104_83 Bus1=104_83 Bus2=104_84 phases=3 Linecode=3c_300_ASN Length=0.53661 Units=m
New Line.LINE104_84 Bus1=104_83 Bus2=104_85 phases=3 Linecode=3c_300_ASN Length=1.658 Units=m
New Line.LINE104_85 Bus1=104_84 Bus2=104_86 phases=3 Linecode=3c_300_ASN Length=0.21602 Units=m
New Line.LINE104_86 Bus1=104_85 Bus2=104_87 phases=3 Linecode=3c_95_SAC_XC Length=1.3625 Units=m
New Line.LINE104_87 Bus1=104_85 Bus2=104_88 phases=3 Linecode=3c_95_SAC_XC Length=0.54462 Units=m
New Line.LINE104_88 Bus1=104_85 Bus2=104_89 phases=3 Linecode=3c_300_ASN Length=3.3817 Units=m
New Line.LINE104_89 Bus1=104_86 Bus2=104_90 phases=3 Linecode=3c_300_ASN Length=0.27809 Units=m
New Line.LINE104_90 Bus1=104_87 Bus2=104_91 phases=3 Linecode=3c_95_SAC_XC Length=0.32146 Units=m
New Line.LINE104_91 Bus1=104_88 Bus2=104_92 phases=3 Linecode=3c_95_SAC_XC Length=0.29773 Units=m
New Line.LINE104_92 Bus1=104_89 Bus2=104_93 phases=3 Linecode=3c_300_ASN Length=8.291 Units=m
New Line.LINE104_93 Bus1=104_90 Bus2=104_94 phases=3 Linecode=3c_300_ASN Length=0.063064 Units=m
New Line.LINE104_94 Bus1=104_91 Bus2=104_95 phases=3 Linecode=3c_95_SAC_XC Length=0.058189 Units=m
New Line.LINE104_95 Bus1=104_92 Bus2=104_96 phases=3 Linecode=3c_95_SAC_XC Length=0.30794 Units=m
New Line.LINE104_96 Bus1=104_93 Bus2=104_97 phases=3 Linecode=3c_300_ASN Length=0.36675 Units=m
New Line.LINE104_97 Bus1=104_94 Bus2=104_98 phases=3 Linecode=3c_300_ASN Length=0.076368 Units=m
New Line.LINE104_98 Bus1=104_95 Bus2=104_99 phases=3 Linecode=3c_95_SAC_XC Length=0.1186 Units=m
New Line.LINE104_99 Bus1=104_96 Bus2=104_100 phases=3 Linecode=3c_95_SAC_XC Length=0.32983 Units=m
New Line.LINE104_100 Bus1=104_97 Bus2=104_101 phases=3 Linecode=3c_300_ASN Length=0.31622 Units=m
New Line.LINE104_101 Bus1=104_98 Bus2=104_102 phases=3 Linecode=3c_300_ASN Length=0.15352 Units=m
New Line.LINE104_102 Bus1=104_99 Bus2=104_103 phases=3 Linecode=3c_95_SAC_XC Length=0.043566 Units=m
New Line.LINE104_103 Bus1=104_100 Bus2=104_104 phases=3 Linecode=3c_95_SAC_XC Length=0.20034 Units=m
New Line.LINE104_104 Bus1=104_101 Bus2=104_105 phases=3 Linecode=3c_300_ASN Length=0.33615 Units=m
New Line.LINE104_105 Bus1=104_102 Bus2=104_106 phases=3 Linecode=3c_300_ASN Length=0.05906 Units=m
New Line.LINE104_106 Bus1=104_103 Bus2=104_107 phases=3 Linecode=3c_95_SAC_XC Length=0.034176 Units=m
New Line.LINE104_107 Bus1=104_105 Bus2=104_108 phases=3 Linecode=3c_300_ASN Length=0.344 Units=m
New Line.LINE104_108 Bus1=104_106 Bus2=104_109 phases=3 Linecode=3c_300_ASN Length=0.053934 Units=m
New Line.LINE104_109 Bus1=104_107 Bus2=104_110 phases=3 Linecode=3c_95_SAC_XC Length=0.03662 Units=m
New Line.LINE104_110 Bus1=104_108 Bus2=104_111 phases=3 Linecode=3c_300_ASN Length=0.56404 Units=m
New Line.LINE104_111 Bus1=104_109 Bus2=104_112 phases=3 Linecode=3c_300_ASN Length=0.084025 Units=m
New Line.LINE104_112 Bus1=104_110 Bus2=104_113 phases=3 Linecode=3c_95_SAC_XC Length=0.033121 Units=m
New Line.LINE104_113 Bus1=104_111 Bus2=104_114 phases=3 Linecode=3c_300_ASN Length=0.13682 Units=m
New Line.LINE104_114 Bus1=104_112 Bus2=104_115 phases=3 Linecode=3c_300_ASN Length=0.05994 Units=m
New Line.LINE104_115 Bus1=104_113 Bus2=104_116 phases=3 Linecode=3c_95_SAC_XC Length=4.6618 Units=m
New Line.LINE104_116 Bus1=104_114 Bus2=104_117 phases=3 Linecode=3c_300_ASN Length=0.11173 Units=m
New Line.LINE104_117 Bus1=104_115 Bus2=104_118 phases=3 Linecode=3c_300_ASN Length=0.043831 Units=m
New Line.LINE104_118 Bus1=104_116 Bus2=104_119 phases=3 Linecode=3c_95_SAC_XC Length=0.33549 Units=m
New Line.LINE104_119 Bus1=104_117 Bus2=104_120 phases=3 Linecode=3c_300_ASN Length=0.36417 Units=m
New Line.LINE104_120 Bus1=104_118 Bus2=104_121 phases=3 Linecode=3c_300_ASN Length=0.05281 Units=m
New Line.LINE104_121 Bus1=104_119 Bus2=104_122 phases=3 Linecode=3c_95_SAC_XC Length=0.14142 Units=m
New Line.LINE104_122 Bus1=104_120 Bus2=104_123 phases=3 Linecode=3c_300_ASN Length=0.48918 Units=m
New Line.LINE104_123 Bus1=104_121 Bus2=104_124 phases=3 Linecode=3c_300_ASN Length=0.055326 Units=m
New Line.LINE104_124 Bus1=104_122 Bus2=104_125 phases=3 Linecode=3c_95_SAC_XC Length=0.16148 Units=m
New Line.LINE104_125 Bus1=104_123 Bus2=104_126 phases=3 Linecode=3c_300_ASN Length=0.11469 Units=m
New Line.LINE104_126 Bus1=104_124 Bus2=104_127 phases=3 Linecode=3c_300_ASN Length=0.10118 Units=m
New Line.LINE104_127 Bus1=104_125 Bus2=104_128 phases=3 Linecode=3c_95_SAC_XC Length=5.6887 Units=m
New Line.LINE104_128 Bus1=104_126 Bus2=104_129 phases=3 Linecode=3c_300_ASN Length=0.14806 Units=m
New Line.LINE104_129 Bus1=104_127 Bus2=104_130 phases=3 Linecode=3c_300_ASN Length=0.24235 Units=m
New Line.LINE104_130 Bus1=104_128 Bus2=104_131 phases=3 Linecode=3c_95_SAC_XC Length=1.5985 Units=m
New Line.LINE104_131 Bus1=104_129 Bus2=104_132 phases=3 Linecode=3c_300_ASN Length=1.0595 Units=m
New Line.LINE104_132 Bus1=104_130 Bus2=104_133 phases=3 Linecode=3c_300_ASN Length=0.18444 Units=m
New Line.LINE104_133 Bus1=104_131 Bus2=104_134 phases=3 Linecode=3c_95_SAC_XC Length=0.78714 Units=m
New Line.LINE104_134 Bus1=104_132 Bus2=104_135 phases=3 Linecode=3c_300_ASN Length=1.2484 Units=m
New Line.LINE104_135 Bus1=104_133 Bus2=104_136 phases=3 Linecode=3c_300_ASN Length=0.1514 Units=m
New Line.LINE104_136 Bus1=104_134 Bus2=104_137 phases=3 Linecode=3c_95_SAC_XC Length=0.63562 Units=m
New Line.LINE104_137 Bus1=104_135 Bus2=104_138 phases=3 Linecode=3c_300_ASN Length=12.3085 Units=m
New Line.LINE104_138 Bus1=104_136 Bus2=104_139 phases=3 Linecode=3c_300_ASN Length=0.17058 Units=m
New Line.LINE104_139 Bus1=104_137 Bus2=104_140 phases=3 Linecode=3c_95_SAC_XC Length=1.137 Units=m
New Line.LINE104_140 Bus1=104_138 Bus2=104_141 phases=3 Linecode=3c_300_ASN Length=5.7056 Units=m
New Line.LINE104_141 Bus1=104_139 Bus2=104_142 phases=3 Linecode=3c_300_ASN Length=0.13952 Units=m
New Line.LINE104_142 Bus1=104_140 Bus2=104_143 phases=3 Linecode=3c_95_SAC_XC Length=0.98794 Units=m
New Line.LINE104_143 Bus1=104_141 Bus2=104_144 phases=3 Linecode=3c_300_ASN Length=3.5082 Units=m
New Line.LINE104_144 Bus1=104_142 Bus2=104_145 phases=3 Linecode=3c_300_ASN Length=0.2464 Units=m
New Line.LINE104_145 Bus1=104_143 Bus2=104_146 phases=3 Linecode=3c_95_SAC_XC Length=2.1269 Units=m
New Line.LINE104_146 Bus1=104_144 Bus2=104_147 phases=3 Linecode=3c_300_ASN Length=1.3602 Units=m
New Line.LINE104_147 Bus1=104_145 Bus2=104_148 phases=3 Linecode=3c_300_ASN Length=0.3118 Units=m
New Line.LINE104_148 Bus1=104_146 Bus2=104_149 phases=3 Linecode=3c_95_SAC_XC Length=2.1146 Units=m
New Line.LINE104_149 Bus1=104_147 Bus2=104_150 phases=3 Linecode=3c_300_ASN Length=0.24551 Units=m
New Line.LINE104_150 Bus1=104_148 Bus2=104_151 phases=3 Linecode=3c_300_ASN Length=0.17381 Units=m
New Line.LINE104_151 Bus1=104_149 Bus2=104_152 phases=3 Linecode=3c_95_SAC_XC Length=3.2357 Units=m
New Line.LINE104_152 Bus1=104_150 Bus2=104_153 phases=3 Linecode=3c_300_ASN Length=1.0145 Units=m
New Line.LINE104_153 Bus1=104_151 Bus2=104_154 phases=3 Linecode=3c_300_ASN Length=0.197 Units=m
New Line.LINE104_154 Bus1=104_152 Bus2=104_155 phases=3 Linecode=3c_95_SAC_XC Length=2.4867 Units=m
New Line.LINE104_155 Bus1=104_153 Bus2=104_156 phases=3 Linecode=3c_300_ASN Length=0.76863 Units=m
New Line.LINE104_156 Bus1=104_154 Bus2=104_157 phases=3 Linecode=3c_300_ASN Length=0.37 Units=m
New Line.LINE104_157 Bus1=104_155 Bus2=104_158 phases=3 Linecode=3c_95_SAC_XC Length=0.41233 Units=m
New Line.LINE104_158 Bus1=104_156 Bus2=104_159 phases=3 Linecode=3c_300_ASN Length=1.5476 Units=m
New Line.LINE104_159 Bus1=104_157 Bus2=104_160 phases=3 Linecode=3c_300_ASN Length=0.35285 Units=m
New Line.LINE104_160 Bus1=104_158 Bus2=104_161 phases=3 Linecode=3c_95_SAC_XC Length=0.13994 Units=m
New Line.LINE104_161 Bus1=104_159 Bus2=104_162 phases=3 Linecode=3c_300_ASN Length=2.9546 Units=m
New Line.LINE104_162 Bus1=104_160 Bus2=104_163 phases=3 Linecode=3c_300_ASN Length=2.197 Units=m
New Line.LINE104_163 Bus1=104_161 Bus2=104_164 phases=3 Linecode=3c_95_SAC_XC Length=0.14599 Units=m
New Line.LINE104_164 Bus1=104_162 Bus2=104_165 phases=3 Linecode=3c_300_ASN Length=2.7539 Units=m
New Line.LINE104_165 Bus1=104_163 Bus2=104_166 phases=3 Linecode=3c_300_ASN Length=1.0988 Units=m
New Line.LINE104_166 Bus1=104_163 Bus2=104_167 phases=3 Linecode=4c_.5 Length=0.15663 Units=m
New Line.LINE104_167 Bus1=104_164 Bus2=104_168 phases=3 Linecode=3c_95_SAC_XC Length=0.14697 Units=m
New Line.LINE104_168 Bus1=104_165 Bus2=104_169 phases=3 Linecode=25_SAC_XC Length=5.6614 Units=m
New Line.LINE104_169 Bus1=104_165 Bus2=104_170 phases=3 Linecode=3c_300_ASN Length=0.20303 Units=m
New Line.LINE104_170 Bus1=104_166 Bus2=104_171 phases=3 Linecode=4c_.5 Length=2.0328 Units=m
New Line.LINE104_171 Bus1=104_167 Bus2=104_172 phases=3 Linecode=4c_.5 Length=0.076321 Units=m
New Line.LINE104_172 Bus1=104_168 Bus2=104_173 phases=3 Linecode=3c_95_SAC_XC Length=0.49477 Units=m
New Line.LINE104_173 Bus1=104_170 Bus2=104_174 phases=3 Linecode=3c_300_ASN Length=2.3543 Units=m
New Line.LINE104_174 Bus1=104_171 Bus2=104_175 phases=3 Linecode=3c_185_SAC_XC Length=0.20554 Units=m
New Line.LINE104_175 Bus1=104_171 Bus2=104_176 phases=3 Linecode=4c_.5 Length=1.5836 Units=m
New Line.LINE104_176 Bus1=104_171 Bus2=104_177 phases=3 Linecode=4c_.5 Length=1.5836 Units=m
New Line.LINE104_177 Bus1=104_172 Bus2=104_178 phases=3 Linecode=4c_.5 Length=0.091999 Units=m
New Line.LINE104_178 Bus1=104_173 Bus2=104_179 phases=3 Linecode=3c_95_SAC_XC Length=1.6762 Units=m
New Line.LINE104_179 Bus1=104_174 Bus2=104_180 phases=3 Linecode=3c_300_ASN Length=4.0194 Units=m
New Line.LINE104_180 Bus1=104_175 Bus2=104_181 phases=3 Linecode=3c_185_SAC_XC Length=0.354 Units=m
New Line.LINE104_181 Bus1=104_176 Bus2=104_182 phases=3 Linecode=4c_.5 Length=1.3266 Units=m
New Line.LINE104_182 Bus1=104_176 Bus2=104_183 phases=3 Linecode=4c_.5 Length=1.3266 Units=m
New Line.LINE104_183 Bus1=104_178 Bus2=104_184 phases=3 Linecode=4c_.5 Length=0.10046 Units=m
New Line.LINE104_184 Bus1=104_179 Bus2=104_185 phases=3 Linecode=25_SAC_XC Length=21.259 Units=m
New Line.LINE104_185 Bus1=104_180 Bus2=104_186 phases=3 Linecode=3c_300_ASN Length=2.6834 Units=m
New Line.LINE104_186 Bus1=104_181 Bus2=104_187 phases=3 Linecode=3c_185_SAC_XC Length=0.21715 Units=m
New Line.LINE104_187 Bus1=104_182 Bus2=104_188 phases=3 Linecode=4c_.5 Length=0.29461 Units=m
New Line.LINE104_188 Bus1=104_182 Bus2=104_189 phases=3 Linecode=4c_.5 Length=0.29461 Units=m
New Line.LINE104_189 Bus1=104_184 Bus2=104_190 phases=3 Linecode=4c_.5 Length=0.11245 Units=m
New Line.LINE104_190 Bus1=104_186 Bus2=104_191 phases=3 Linecode=3c_300_ASN Length=2.0702 Units=m
New Line.LINE104_191 Bus1=104_187 Bus2=104_192 phases=3 Linecode=3c_185_SAC_XC Length=0.59354 Units=m
New Line.LINE104_192 Bus1=104_188 Bus2=104_193 phases=3 Linecode=4c_.5 Length=0.27502 Units=m
New Line.LINE104_193 Bus1=104_188 Bus2=104_194 phases=3 Linecode=4c_.5 Length=0.27502 Units=m
New Line.LINE104_194 Bus1=104_191 Bus2=104_195 phases=3 Linecode=3c_300_ASN Length=1.6502 Units=m
New Line.LINE104_195 Bus1=104_192 Bus2=104_196 phases=3 Linecode=3c_185_SAC_XC Length=1.8414 Units=m
New Line.LINE104_196 Bus1=104_193 Bus2=104_197 phases=3 Linecode=4c_.5 Length=0.77384 Units=m
New Line.LINE104_197 Bus1=104_193 Bus2=104_198 phases=3 Linecode=4c_.5 Length=0.77384 Units=m
New Line.LINE104_198 Bus1=104_195 Bus2=104_199 phases=3 Linecode=3c_300_ASN Length=0.25229 Units=m
New Line.LINE104_199 Bus1=104_196 Bus2=104_200 phases=3 Linecode=3c_185_SAC_XC Length=0.34313 Units=m
New Line.LINE104_200 Bus1=104_197 Bus2=104_201 phases=3 Linecode=4c_.5 Length=0.71782 Units=m
New Line.LINE104_201 Bus1=104_197 Bus2=104_202 phases=3 Linecode=4c_.5 Length=0.71782 Units=m
New Line.LINE104_202 Bus1=104_199 Bus2=104_203 phases=3 Linecode=3c_300_ASN Length=0.2063 Units=m
New Line.LINE104_203 Bus1=104_200 Bus2=104_204 phases=3 Linecode=3c_185_SAC_XC Length=0.15447 Units=m
New Line.LINE104_204 Bus1=104_201 Bus2=104_205 phases=3 Linecode=4c_.5 Length=0.29811 Units=m
New Line.LINE104_205 Bus1=104_201 Bus2=104_206 phases=3 Linecode=4c_.5 Length=0.29811 Units=m
New Line.LINE104_206 Bus1=104_203 Bus2=104_207 phases=3 Linecode=3c_300_ASN Length=0.10604 Units=m
New Line.LINE104_207 Bus1=104_204 Bus2=104_208 phases=3 Linecode=3c_185_SAC_XC Length=0.10568 Units=m
New Line.LINE104_208 Bus1=104_205 Bus2=104_209 phases=3 Linecode=4c_.5 Length=0.27273 Units=m
New Line.LINE104_209 Bus1=104_205 Bus2=104_210 phases=3 Linecode=4c_.5 Length=0.27273 Units=m
New Line.LINE104_210 Bus1=104_207 Bus2=104_211 phases=3 Linecode=3c_300_ASN Length=0.090471 Units=m
New Line.LINE104_211 Bus1=104_208 Bus2=104_212 phases=3 Linecode=3c_185_SAC_XC Length=0.15394 Units=m
New Line.LINE104_212 Bus1=104_209 Bus2=104_213 phases=3 Linecode=4c_.5 Length=0.23408 Units=m
New Line.LINE104_213 Bus1=104_209 Bus2=104_214 phases=3 Linecode=4c_.5 Length=0.23408 Units=m
New Line.LINE104_214 Bus1=104_211 Bus2=104_215 phases=3 Linecode=3c_300_ASN Length=0.10576 Units=m
New Line.LINE104_215 Bus1=104_212 Bus2=104_216 phases=3 Linecode=3c_185_SAC_XC Length=0.1478 Units=m
New Line.LINE104_216 Bus1=104_213 Bus2=104_217 phases=3 Linecode=4c_.5 Length=0.19958 Units=m
New Line.LINE104_217 Bus1=104_213 Bus2=104_218 phases=3 Linecode=4c_.5 Length=0.19958 Units=m
New Line.LINE104_218 Bus1=104_215 Bus2=104_219 phases=3 Linecode=3c_300_ASN Length=0.15447 Units=m
New Line.LINE104_219 Bus1=104_216 Bus2=104_220 phases=3 Linecode=3c_185_SAC_XC Length=0.15494 Units=m
New Line.LINE104_220 Bus1=104_217 Bus2=104_221 phases=3 Linecode=4c_.5 Length=0.23139 Units=m
New Line.LINE104_221 Bus1=104_217 Bus2=104_222 phases=3 Linecode=4c_.5 Length=0.23139 Units=m
New Line.LINE104_222 Bus1=104_219 Bus2=104_223 phases=3 Linecode=3c_300_ASN Length=0.98957 Units=m
New Line.LINE104_223 Bus1=104_220 Bus2=104_224 phases=3 Linecode=3c_185_SAC_XC Length=0.15179 Units=m
New Line.LINE104_224 Bus1=104_221 Bus2=104_225 phases=3 Linecode=4c_.5 Length=0.18949 Units=m
New Line.LINE104_225 Bus1=104_221 Bus2=104_226 phases=3 Linecode=4c_.5 Length=0.18949 Units=m
New Line.LINE104_226 Bus1=104_223 Bus2=104_227 phases=3 Linecode=4c_.25 Length=0.4869 Units=m
New Line.LINE104_227 Bus1=104_224 Bus2=104_228 phases=3 Linecode=3c_185_SAC_XC Length=1.4412 Units=m
New Line.LINE104_228 Bus1=104_225 Bus2=104_229 phases=3 Linecode=4c_.5 Length=0.43664 Units=m
New Line.LINE104_229 Bus1=104_225 Bus2=104_230 phases=3 Linecode=4c_.5 Length=0.43664 Units=m
New Line.LINE104_230 Bus1=104_227 Bus2=104_231 phases=3 Linecode=4c_.25 Length=9.3373 Units=m
New Line.LINE104_231 Bus1=104_228 Bus2=104_232 phases=3 Linecode=3c_185_SAC_XC Length=1.0878 Units=m
New Line.LINE104_232 Bus1=104_229 Bus2=104_233 phases=3 Linecode=4c_.5 Length=0.74995 Units=m
New Line.LINE104_233 Bus1=104_229 Bus2=104_234 phases=3 Linecode=4c_.5 Length=0.74995 Units=m
New Line.LINE104_234 Bus1=104_231 Bus2=104_235 phases=3 Linecode=4c_.25 Length=5.2983 Units=m
New Line.LINE104_235 Bus1=104_232 Bus2=104_236 phases=3 Linecode=3c_185_SAC_XC Length=0.27491 Units=m
New Line.LINE104_236 Bus1=104_233 Bus2=104_237 phases=3 Linecode=4c_.5 Length=0.60976 Units=m
New Line.LINE104_237 Bus1=104_233 Bus2=104_238 phases=3 Linecode=4c_.5 Length=0.60976 Units=m
New Line.LINE104_238 Bus1=104_235 Bus2=104_239 phases=3 Linecode=4c_.25 Length=2.6105 Units=m
New Line.LINE104_239 Bus1=104_236 Bus2=104_240 phases=3 Linecode=3c_185_SAC_XC Length=0.27197 Units=m
New Line.LINE104_240 Bus1=104_237 Bus2=104_241 phases=3 Linecode=4c_.5 Length=0.51301 Units=m
New Line.LINE104_241 Bus1=104_237 Bus2=104_242 phases=3 Linecode=4c_.5 Length=0.51301 Units=m
New Line.LINE104_242 Bus1=104_239 Bus2=104_243 phases=3 Linecode=4c_.25 Length=0.12366 Units=m
New Line.LINE104_243 Bus1=104_240 Bus2=104_244 phases=3 Linecode=3c_185_SAC_XC Length=0.31992 Units=m
New Line.LINE104_244 Bus1=104_241 Bus2=104_245 phases=3 Linecode=4c_.5 Length=0.62386 Units=m
New Line.LINE104_245 Bus1=104_241 Bus2=104_246 phases=3 Linecode=4c_.5 Length=0.62386 Units=m
New Line.LINE104_246 Bus1=104_243 Bus2=104_247 phases=3 Linecode=.007_PSC Length=0.89711 Units=m
New Line.LINE104_247 Bus1=104_243 Bus2=104_248 phases=3 Linecode=4c_.25 Length=2.9637 Units=m
New Line.LINE104_248 Bus1=104_244 Bus2=104_249 phases=3 Linecode=3c_185_SAC_XC Length=0.21234 Units=m
New Line.LINE104_249 Bus1=104_245 Bus2=104_250 phases=3 Linecode=4c_.5 Length=18.5448 Units=m
New Line.LINE104_250 Bus1=104_245 Bus2=104_251 phases=3 Linecode=4c_.5 Length=18.5448 Units=m
New Line.LINE104_251 Bus1=104_247 Bus2=104_252 phases=3 Linecode=.007_PSC Length=0.19449 Units=m
New Line.LINE104_252 Bus1=104_248 Bus2=104_253 phases=3 Linecode=4c_.25 Length=2.8391 Units=m
New Line.LINE104_253 Bus1=104_249 Bus2=104_254 phases=3 Linecode=3c_185_SAC_XC Length=0.55699 Units=m
New Line.LINE104_254 Bus1=104_250 Bus2=104_255 phases=3 Linecode=4_PC Length=0.44432 Units=m
New Line.LINE104_255 Bus1=104_250 Bus2=104_256 phases=3 Linecode=4c_.5 Length=3.5062 Units=m
New Line.LINE104_256 Bus1=104_250 Bus2=104_257 phases=3 Linecode=4c_.5 Length=3.5062 Units=m
New Line.LINE104_257 Bus1=104_252 Bus2=104_258 phases=3 Linecode=.007_PSC Length=0.12075 Units=m
New Line.LINE104_258 Bus1=104_253 Bus2=104_259 phases=3 Linecode=4c_.25 Length=1.9953 Units=m
New Line.LINE104_259 Bus1=104_254 Bus2=104_260 phases=3 Linecode=3c_185_SAC_XC Length=0.56907 Units=m
New Line.LINE104_260 Bus1=104_255 Bus2=104_261 phases=3 Linecode=4_PC Length=0.2093 Units=m
New Line.LINE104_261 Bus1=104_256 Bus2=104_262 phases=3 Linecode=2c_.007 Length=2.2254 Units=m
New Line.LINE104_262 Bus1=104_256 Bus2=104_263 phases=3 Linecode=4c_.5 Length=2.5802 Units=m
New Line.LINE104_263 Bus1=104_256 Bus2=104_264 phases=3 Linecode=4c_.5 Length=1.7656 Units=m
New Line.LINE104_264 Bus1=104_258 Bus2=104_265 phases=3 Linecode=.007_PSC Length=0.097006 Units=m
New Line.LINE104_265 Bus1=104_259 Bus2=104_266 phases=3 Linecode=4c_.25 Length=1.0563 Units=m
New Line.LINE104_266 Bus1=104_260 Bus2=104_267 phases=3 Linecode=3c_185_SAC_XC Length=0.40018 Units=m
New Line.LINE104_267 Bus1=104_261 Bus2=104_268 phases=3 Linecode=4_PC Length=0.22003 Units=m
New Line.LINE104_268 Bus1=104_262 Bus2=104_269 phases=3 Linecode=2c_.007 Length=5.5111 Units=m
New Line.LINE104_269 Bus1=104_263 Bus2=104_270 phases=3 Linecode=4c_.5 Length=16.1012 Units=m
New Line.LINE104_270 Bus1=104_263 Bus2=104_271 phases=3 Linecode=4c_.5 Length=16.1012 Units=m
New Line.LINE104_271 Bus1=104_263 Bus2=104_272 phases=3 Linecode=4c_.5 Length=0.81461 Units=m
New Line.LINE104_272 Bus1=104_264 Bus2=104_273 phases=3 Linecode=25_SAC_XC Length=9.6855 Units=m
New Line.LINE104_273 Bus1=104_265 Bus2=104_274 phases=3 Linecode=.007_PSC Length=0.10683 Units=m
New Line.LINE104_274 Bus1=104_266 Bus2=104_275 phases=3 Linecode=4c_.25 Length=3.684 Units=m
New Line.LINE104_275 Bus1=104_267 Bus2=104_276 phases=3 Linecode=3c_185_SAC_XC Length=0.41566 Units=m
New Line.LINE104_276 Bus1=104_268 Bus2=104_277 phases=3 Linecode=4_PC Length=0.29606 Units=m
New Line.LINE104_277 Bus1=104_269 Bus2=104_278 phases=3 Linecode=2c_.007 Length=1.9755 Units=m
New Line.LINE104_278 Bus1=104_270 Bus2=104_279 phases=3 Linecode=4c_.5 Length=9.2241 Units=m
New Line.LINE104_279 Bus1=104_270 Bus2=104_280 phases=3 Linecode=4c_.5 Length=2.2867 Units=m
New Line.LINE104_280 Bus1=104_274 Bus2=104_281 phases=3 Linecode=.007_PSC Length=0.11385 Units=m
New Line.LINE104_281 Bus1=104_275 Bus2=104_282 phases=3 Linecode=4c_.25 Length=3.6839 Units=m
New Line.LINE104_282 Bus1=104_276 Bus2=104_283 phases=3 Linecode=3c_185_SAC_XC Length=0.25796 Units=m
New Line.LINE104_283 Bus1=104_277 Bus2=104_284 phases=3 Linecode=4_PC Length=0.321 Units=m
New Line.LINE104_284 Bus1=104_279 Bus2=104_285 phases=3 Linecode=4c_.5 Length=2.0605 Units=m
New Line.LINE104_285 Bus1=104_279 Bus2=104_286 phases=3 Linecode=4_PC Length=0.5432 Units=m
New Line.LINE104_286 Bus1=104_279 Bus2=104_287 phases=3 Linecode=4c_.5 Length=2.0605 Units=m
New Line.LINE104_287 Bus1=104_279 Bus2=104_288 phases=3 Linecode=4c_.5 Length=6.9374 Units=m
New Line.LINE104_288 Bus1=104_280 Bus2=104_289 phases=3 Linecode=25_SAC_XC Length=7.0918 Units=m
New Line.LINE104_289 Bus1=104_281 Bus2=104_290 phases=3 Linecode=.007_PSC Length=0.10817 Units=m
New Line.LINE104_290 Bus1=104_282 Bus2=104_291 phases=3 Linecode=4c_.25 Length=3.9041 Units=m
New Line.LINE104_291 Bus1=104_284 Bus2=104_292 phases=3 Linecode=4_PC Length=0.36985 Units=m
New Line.LINE104_292 Bus1=104_285 Bus2=104_293 phases=3 Linecode=4c_.5 Length=4.5042 Units=m
New Line.LINE104_293 Bus1=104_285 Bus2=104_294 phases=3 Linecode=4c_.5 Length=4.5042 Units=m
New Line.LINE104_294 Bus1=104_286 Bus2=104_295 phases=3 Linecode=4_PC Length=0.41496 Units=m
New Line.LINE104_295 Bus1=104_290 Bus2=104_296 phases=3 Linecode=.007_PSC Length=2.551 Units=m
New Line.LINE104_296 Bus1=104_291 Bus2=104_297 phases=3 Linecode=4c_.25 Length=0.40082 Units=m
New Line.LINE104_297 Bus1=104_293 Bus2=104_298 phases=3 Linecode=4c_.5 Length=0.12681 Units=m
New Line.LINE104_298 Bus1=104_293 Bus2=104_299 phases=3 Linecode=4c_.5 Length=0.12681 Units=m
New Line.LINE104_299 Bus1=104_295 Bus2=104_300 phases=3 Linecode=4_PC Length=0.38147 Units=m
New Line.LINE104_300 Bus1=104_297 Bus2=104_301 phases=3 Linecode=4c_.25 Length=0.74509 Units=m
New Line.LINE104_301 Bus1=104_298 Bus2=104_302 phases=3 Linecode=4c_.5 Length=0.085865 Units=m
New Line.LINE104_302 Bus1=104_298 Bus2=104_303 phases=3 Linecode=4c_.5 Length=0.085865 Units=m
New Line.LINE104_303 Bus1=104_300 Bus2=104_304 phases=3 Linecode=4_PC Length=0.093775 Units=m
New Line.LINE104_304 Bus1=104_301 Bus2=104_305 phases=3 Linecode=4c_.25 Length=0.42186 Units=m
New Line.LINE104_305 Bus1=104_302 Bus2=104_306 phases=3 Linecode=4c_.5 Length=0.13829 Units=m
New Line.LINE104_306 Bus1=104_302 Bus2=104_307 phases=3 Linecode=4c_.5 Length=0.13829 Units=m
New Line.LINE104_307 Bus1=104_304 Bus2=104_308 phases=3 Linecode=4_PC Length=0.1293 Units=m
New Line.LINE104_308 Bus1=104_305 Bus2=104_309 phases=3 Linecode=4c_.25 Length=0.18173 Units=m
New Line.LINE104_309 Bus1=104_306 Bus2=104_310 phases=3 Linecode=4c_.5 Length=0.070006 Units=m