New Line.LINE105_1 Bus1=105_1 Bus2=105_2 phases=3 Linecode=3c_300_SAC_XC Length=0.76971 Units=m
New Line.LINE105_2 Bus1=105_2 Bus2=105_3 phases=3 Linecode=3c_300_SAC_XC Length=0.071175 Units=m
New Line.LINE105_3 Bus1=105_3 Bus2=105_4 phases=3 Linecode=3c_300_SAC_XC Length=0.071281 Units=m
New Line.LINE105_4 Bus1=105_4 Bus2=105_5 phases=3 Linecode=3c_300_SAC_XC Length=0.070711 Units=m
New Line.LINE105_5 Bus1=105_5 Bus2=105_6 phases=3 Linecode=3c_300_SAC_XC Length=0.071029 Units=m
New Line.LINE105_6 Bus1=105_6 Bus2=105_7 phases=3 Linecode=3c_300_SAC_XC Length=0.071588 Units=m
New Line.LINE105_7 Bus1=105_7 Bus2=105_8 phases=3 Linecode=3c_300_SAC_XC Length=0.071309 Units=m
New Line.LINE105_8 Bus1=105_8 Bus2=105_9 phases=3 Linecode=3c_300_SAC_XC Length=0.071176 Units=m
New Line.LINE105_9 Bus1=105_9 Bus2=105_10 phases=3 Linecode=3c_300_SAC_XC Length=0.070456 Units=m
New Line.LINE105_10 Bus1=105_10 Bus2=105_11 phases=3 Linecode=3c_300_SAC_XC Length=0.73721 Units=m
New Line.LINE105_11 Bus1=105_11 Bus2=105_12 phases=3 Linecode=3c_300_SAC_XC Length=1.7693 Units=m
New Line.LINE105_12 Bus1=105_12 Bus2=105_13 phases=3 Linecode=3c_300_SAC_XC Length=0.18318 Units=m
New Line.LINE105_13 Bus1=105_13 Bus2=105_14 phases=3 Linecode=3c_300_SAC_XC Length=0.18253 Units=m
New Line.LINE105_14 Bus1=105_14 Bus2=105_15 phases=3 Linecode=3c_300_SAC_XC Length=0.18246 Units=m
New Line.LINE105_15 Bus1=105_15 Bus2=105_16 phases=3 Linecode=3c_300_SAC_XC Length=0.18308 Units=m
New Line.LINE105_16 Bus1=105_16 Bus2=105_17 phases=3 Linecode=3c_300_SAC_XC Length=0.18217 Units=m
New Line.LINE105_17 Bus1=105_17 Bus2=105_18 phases=3 Linecode=3c_300_SAC_XC Length=0.18318 Units=m
New Line.LINE105_18 Bus1=105_18 Bus2=105_19 phases=3 Linecode=3c_300_SAC_XC Length=0.18301 Units=m
New Line.LINE105_19 Bus1=105_19 Bus2=105_20 phases=3 Linecode=3c_300_SAC_XC Length=0.1818 Units=m
New Line.LINE105_20 Bus1=105_20 Bus2=105_21 phases=3 Linecode=3c_300_SAC_XC Length=1.3146 Units=m
New Line.LINE105_21 Bus1=105_21 Bus2=105_22 phases=3 Linecode=3c_300_SAC_XC Length=1.5617 Units=m
New Line.LINE105_22 Bus1=105_22 Bus2=105_23 phases=3 Linecode=3c_300_SAC_XC Length=0.88888 Units=m
New Line.LINE105_23 Bus1=105_23 Bus2=105_24 phases=3 Linecode=3c_300_SAC_XC Length=1.1934 Units=m
New Line.LINE105_24 Bus1=105_24 Bus2=105_25 phases=3 Linecode=3c_300_SAC_XC Length=0.85425 Units=m
New Line.LINE105_25 Bus1=105_25 Bus2=105_26 phases=3 Linecode=3c_300_SAC_XC Length=1.6709 Units=m
New Line.LINE105_26 Bus1=105_26 Bus2=105_27 phases=3 Linecode=3c_300_SAC_XC Length=1.2943 Units=m
New Line.LINE105_27 Bus1=105_27 Bus2=105_28 phases=3 Linecode=3c_300_SAC_XC Length=7.4299 Units=m
New Line.LINE105_28 Bus1=105_28 Bus2=105_29 phases=3 Linecode=3c_300_SAC_XC Length=9.8894 Units=m
New Line.LINE105_29 Bus1=105_29 Bus2=105_30 phases=3 Linecode=4c_300_SAC Length=2.6486 Units=m
New Line.LINE105_30 Bus1=105_30 Bus2=105_31 phases=3 Linecode=4c_300_SAC Length=0.16603 Units=m
New Line.LINE105_31 Bus1=105_31 Bus2=105_32 phases=3 Linecode=4c_300_SAC Length=0.11455 Units=m
New Line.LINE105_32 Bus1=105_32 Bus2=105_33 phases=3 Linecode=4c_300_SAC Length=0.14459 Units=m
New Line.LINE105_33 Bus1=105_33 Bus2=105_34 phases=3 Linecode=4c_300_SAC Length=0.049738 Units=m
New Line.LINE105_34 Bus1=105_34 Bus2=105_35 phases=3 Linecode=4c_300_SAC Length=0.098434 Units=m
New Line.LINE105_35 Bus1=105_35 Bus2=105_36 phases=3 Linecode=4c_300_SAC Length=0.13223 Units=m
New Line.LINE105_36 Bus1=105_36 Bus2=105_37 phases=3 Linecode=4c_300_SAC Length=0.067066 Units=m
New Line.LINE105_37 Bus1=105_37 Bus2=105_38 phases=3 Linecode=4c_300_SAC Length=0.082202 Units=m
New Line.LINE105_38 Bus1=105_38 Bus2=105_39 phases=3 Linecode=4c_300_SAC Length=0.092972 Units=m
New Line.LINE105_39 Bus1=105_39 Bus2=105_40 phases=3 Linecode=4c_300_SAC Length=0.092591 Units=m
New Line.LINE105_40 Bus1=105_40 Bus2=105_41 phases=3 Linecode=4c_300_SAC Length=0.11341 Units=m
New Line.LINE105_41 Bus1=105_41 Bus2=105_42 phases=3 Linecode=4c_300_SAC Length=0.13406 Units=m
New Line.LINE105_42 Bus1=105_42 Bus2=105_43 phases=3 Linecode=4c_300_SAC Length=0.14982 Units=m
New Line.LINE105_43 Bus1=105_43 Bus2=105_44 phases=3 Linecode=4c_300_SAC Length=0.13252 Units=m
New Line.LINE105_44 Bus1=105_44 Bus2=105_45 phases=3 Linecode=4c_300_SAC Length=0.57714 Units=m
New Line.LINE105_45 Bus1=105_45 Bus2=105_46 phases=3 Linecode=4c_300_SAC Length=0.563 Units=m
New Line.LINE105_46 Bus1=105_46 Bus2=105_47 phases=3 Linecode=4c_300_SAC Length=0.45674 Units=m
New Line.LINE105_47 Bus1=105_47 Bus2=105_48 phases=3 Linecode=4c_300_SAC Length=0.3907 Units=m
New Line.LINE105_48 Bus1=105_48 Bus2=105_49 phases=3 Linecode=4c_.5 Length=0.2101 Units=m
New Line.LINE105_49 Bus1=105_49 Bus2=105_50 phases=3 Linecode=4c_.5 Length=0.26337 Units=m
New Line.LINE105_50 Bus1=105_50 Bus2=105_51 phases=3 Linecode=4c_.5 Length=6.2219 Units=m
New Line.LINE105_51 Bus1=105_51 Bus2=105_52 phases=3 Linecode=4c_.5 Length=0.039925 Units=m
New Line.LINE105_52 Bus1=105_52 Bus2=105_53 phases=3 Linecode=4c_.5 Length=0.044102 Units=m
New Line.LINE105_53 Bus1=105_53 Bus2=105_54 phases=3 Linecode=4c_.5 Length=0.036797 Units=m
New Line.LINE105_54 Bus1=105_54 Bus2=105_55 phases=3 Linecode=4c_.5 Length=0.037162 Units=m
New Line.LINE105_55 Bus1=105_55 Bus2=105_56 phases=3 Linecode=4c_.5 Length=0.031321 Units=m
New Line.LINE105_56 Bus1=105_56 Bus2=105_57 phases=3 Linecode=4c_.5 Length=0.042013 Units=m
New Line.LINE105_57 Bus1=105_57 Bus2=105_58 phases=3 Linecode=4c_.5 Length=0.05824 Units=m
New Line.LINE105_58 Bus1=105_58 Bus2=105_59 phases=3 Linecode=4c_.5 Length=3.4854 Units=m
New Line.LINE105_59 Bus1=105_59 Bus2=105_60 phases=3 Linecode=4_PC Length=0.56039 Units=m
New Line.LINE105_60 Bus1=105_59 Bus2=105_61 phases=3 Linecode=4c_.5 Length=2.0964 Units=m
New Line.LINE105_61 Bus1=105_60 Bus2=105_62 phases=3 Linecode=4_PC Length=0.30725 Units=m
New Line.LINE105_62 Bus1=105_61 Bus2=105_63 phases=3 Linecode=4c_.5 Length=0.92946 Units=m
New Line.LINE105_63 Bus1=105_62 Bus2=105_64 phases=3 Linecode=4_PC Length=0.25495 Units=m
New Line.LINE105_64 Bus1=105_63 Bus2=105_65 phases=3 Linecode=3c_120 Length=0.28616 Units=m
New Line.LINE105_65 Bus1=105_63 Bus2=105_66 phases=3 Linecode=4c_.5 Length=0.29706 Units=m
New Line.LINE105_66 Bus1=105_64 Bus2=105_67 phases=3 Linecode=4_PC Length=0.17804 Units=m
New Line.LINE105_67 Bus1=105_65 Bus2=105_68 phases=3 Linecode=3c_120 Length=0.11385 Units=m
New Line.LINE105_68 Bus1=105_66 Bus2=105_69 phases=3 Linecode=4c_.5 Length=8.4739 Units=m
New Line.LINE105_69 Bus1=105_67 Bus2=105_70 phases=3 Linecode=4_PC Length=0.1815 Units=m
New Line.LINE105_70 Bus1=105_68 Bus2=105_71 phases=3 Linecode=3c_120 Length=0.14903 Units=m
New Line.LINE105_71 Bus1=105_69 Bus2=105_72 phases=3 Linecode=4c_.5 Length=6.959 Units=m
New Line.LINE105_72 Bus1=105_70 Bus2=105_73 phases=3 Linecode=4_PC Length=0.25318 Units=m
New Line.LINE105_73 Bus1=105_71 Bus2=105_74 phases=3 Linecode=3c_120 Length=0.34314 Units=m
New Line.LINE105_74 Bus1=105_72 Bus2=105_75 phases=3 Linecode=4c_.5 Length=8.804 Units=m
New Line.LINE105_75 Bus1=105_72 Bus2=105_76 phases=3 Linecode=2c_.007 Length=0.1986 Units=m
New Line.LINE105_76 Bus1=105_73 Bus2=105_77 phases=3 Linecode=4_PC Length=0.27295 Units=m
New Line.LINE105_77 Bus1=105_74 Bus2=105_78 phases=3 Linecode=3c_120 Length=0.099479 Units=m
New Line.LINE105_78 Bus1=105_75 Bus2=105_79 phases=3 Linecode=4c_.5 Length=6.9545 Units=m
New Line.LINE105_79 Bus1=105_76 Bus2=105_80 phases=3 Linecode=2c_.007 Length=0.080624 Units=m
New Line.LINE105_80 Bus1=105_77 Bus2=105_81 phases=3 Linecode=4_PC Length=0.87406 Units=m
New Line.LINE105_81 Bus1=105_78 Bus2=105_82 phases=3 Linecode=3c_120 Length=0.11975 Units=m
New Line.LINE105_82 Bus1=105_79 Bus2=105_83 phases=3 Linecode=4c_.5 Length=0.24571 Units=m
New Line.LINE105_83 Bus1=105_80 Bus2=105_84 phases=3 Linecode=2c_.007 Length=0.1005 Units=m
New Line.LINE105_84 Bus1=105_81 Bus2=105_85 phases=3 Linecode=4_PC Length=1.5106 Units=m
New Line.LINE105_85 Bus1=105_82 Bus2=105_86 phases=3 Linecode=3c_120 Length=0.13657 Units=m
New Line.LINE105_86 Bus1=105_83 Bus2=105_87 phases=3 Linecode=4c_.5 Length=0.49953 Units=m
New Line.LINE105_87 Bus1=105_83 Bus2=105_88 phases=3 Linecode=3c_300_SAC_XC Length=0.038277 Units=m
New Line.LINE105_88 Bus1=105_84 Bus2=105_89 phases=3 Linecode=2c_.007 Length=0.1253 Units=m
New Line.LINE105_89 Bus1=105_85 Bus2=105_90 phases=3 Linecode=4_PC Length=0.31622 Units=m
New Line.LINE105_90 Bus1=105_86 Bus2=105_91 phases=3 Linecode=3c_120 Length=0.23056 Units=m
New Line.LINE105_91 Bus1=105_87 Bus2=105_92 phases=3 Linecode=4c_.5 Length=0.35324 Units=m
New Line.LINE105_92 Bus1=105_88 Bus2=105_93 phases=3 Linecode=3c_300_SAC_XC Length=0.22652 Units=m
New Line.LINE105_93 Bus1=105_89 Bus2=105_94 phases=3 Linecode=2c_.007 Length=3.0957 Units=m
New Line.LINE105_94 Bus1=105_91 Bus2=105_95 phases=3 Linecode=3c_120 Length=0.18118 Units=m
New Line.LINE105_95 Bus1=105_92 Bus2=105_96 phases=3 Linecode=4c_.5 Length=0.23411 Units=m
New Line.LINE105_96 Bus1=105_93 Bus2=105_97 phases=3 Linecode=3c_300_SAC_XC Length=0.11421 Units=m
New Line.LINE105_97 Bus1=105_94 Bus2=105_98 phases=3 Linecode=2c_.007 Length=0.068308 Units=m
New Line.LINE105_98 Bus1=105_96 Bus2=105_99 phases=3 Linecode=4c_.5 Length=0.23087 Units=m
New Line.LINE105_99 Bus1=105_97 Bus2=105_100 phases=3 Linecode=3c_300_SAC_XC Length=0.11883 Units=m
New Line.LINE105_100 Bus1=105_98 Bus2=105_101 phases=3 Linecode=2c_.007 Length=0.03759 Units=m
New Line.LINE105_101 Bus1=105_99 Bus2=105_102 phases=3 Linecode=4c_.5 Length=0.25 Units=m
New Line.LINE105_102 Bus1=105_100 Bus2=105_103 phases=3 Linecode=3c_300_SAC_XC Length=0.10308 Units=m
New Line.LINE105_103 Bus1=105_101 Bus2=105_104 phases=3 Linecode=2c_.007 Length=0.087321 Units=m
New Line.LINE105_104 Bus1=105_102 Bus2=105_105 phases=3 Linecode=4c_.5 Length=0.19606 Units=m
New Line.LINE105_105 Bus1=105_103 Bus2=105_106 phases=3 Linecode=3c_300_SAC_XC Length=0.087783 Units=m
New Line.LINE105_106 Bus1=105_104 Bus2=105_107 phases=3 Linecode=2c_.007 Length=0.31016 Units=m
New Line.LINE105_107 Bus1=105_105 Bus2=105_108 phases=3 Linecode=4c_.5 Length=0.78995 Units=m
New Line.LINE105_108 Bus1=105_106 Bus2=105_109 phases=3 Linecode=3c_300_SAC_XC Length=0.11122 Units=m
New Line.LINE105_109 Bus1=105_107 Bus2=105_110 phases=3 Linecode=4_PC Length=0.22192 Units=m
New Line.LINE105_110 Bus1=105_108 Bus2=105_111 phases=3 Linecode=4c_.5 Length=0.75667 Units=m
New Line.LINE105_111 Bus1=105_109 Bus2=105_112 phases=3 Linecode=3c_300_SAC_XC Length=0.085288 Units=m
New Line.LINE105_112 Bus1=105_110 Bus2=105_113 phases=3 Linecode=4_PC Length=0.04827 Units=m
New Line.LINE105_113 Bus1=105_111 Bus2=105_114 phases=3 Linecode=4c_.5 Length=1.8361 Units=m
New Line.LINE105_114 Bus1=105_112 Bus2=105_115 phases=3 Linecode=3c_300_SAC_XC Length=0.11968 Units=m
New Line.LINE105_115 Bus1=105_113 Bus2=105_116 phases=3 Linecode=4_PC Length=0.045397 Units=m
New Line.LINE105_116 Bus1=105_114 Bus2=105_117 phases=3 Linecode=3c_300_SAC_ASN Length=9.9833 Units=m
New Line.LINE105_117 Bus1=105_115 Bus2=105_118 phases=3 Linecode=3c_300_SAC_XC Length=1.6978 Units=m
New Line.LINE105_118 Bus1=105_116 Bus2=105_119 phases=3 Linecode=4_PC Length=2.6255 Units=m
New Line.LINE105_119 Bus1=105_117 Bus2=105_120 phases=3 Linecode=4c_.5 Length=3.9504 Units=m
New Line.LINE105_120 Bus1=105_119 Bus2=105_121 phases=3 Linecode=4_PC Length=0.10981 Units=m
New Line.LINE105_121 Bus1=105_120 Bus2=105_122 phases=3 Linecode=4c_.5 Length=15.3344 Units=m
New Line.LINE105_122 Bus1=105_121 Bus2=105_123 phases=3 Linecode=4_PC Length=0.15145 Units=m
New Line.LINE105_123 Bus1=105_122 Bus2=105_124 phases=3 Linecode=4c_.5 Length=5.435 Units=m
New Line.LINE105_124 Bus1=105_123 Bus2=105_125 phases=3 Linecode=4_PC Length=0.13411 Units=m
New Line.LINE105_125 Bus1=105_124 Bus2=105_126 phases=3 Linecode=4c_.5 Length=4.4631 Units=m
New Line.LINE105_126 Bus1=105_125 Bus2=105_127 phases=3 Linecode=4_PC Length=0.14534 Units=m
New Line.LINE105_127 Bus1=105_126 Bus2=105_128 phases=3 Linecode=4c_.5 Length=5.8667 Units=m
New Line.LINE105_128 Bus1=105_127 Bus2=105_129 phases=3 Linecode=4_PC Length=0.13929 Units=m
New Line.LINE105_129 Bus1=105_128 Bus2=105_130 phases=3 Linecode=4c_.5 Length=12.4059 Units=m
New Line.LINE105_130 Bus1=105_129 Bus2=105_131 phases=3 Linecode=4_PC Length=0.19587 Units=m
New Line.LINE105_131 Bus1=105_130 Bus2=105_132 phases=3 Linecode=4c_.5 Length=0.75942 Units=m
New Line.LINE105_132 Bus1=105_131 Bus2=105_133 phases=3 Linecode=4_PC Length=0.14948 Units=m
New Line.LINE105_133 Bus1=105_132 Bus2=105_134 phases=3 Linecode=4c_.5 Length=0.4209 Units=m
New Line.LINE105_134 Bus1=105_133 Bus2=105_135 phases=3 Linecode=4_PC Length=0.22779 Units=m
New Line.LINE105_135 Bus1=105_134 Bus2=105_136 phases=3 Linecode=4c_.5 Length=0.37448 Units=m
New Line.LINE105_136 Bus1=105_135 Bus2=105_137 phases=3 Linecode=4_PC Length=0.21883 Units=m
New Line.LINE105_137 Bus1=105_136 Bus2=105_138 phases=3 Linecode=4c_.5 Length=0.27775 Units=m
New Line.LINE105_138 Bus1=105_137 Bus2=105_139 phases=3 Linecode=4_PC Length=0.13568 Units=m
New Line.LINE105_139 Bus1=105_138 Bus2=105_140 phases=3 Linecode=4c_.5 Length=0.21153 Units=m
New Line.LINE105_140 Bus1=105_139 Bus2=105_141 phases=3 Linecode=4_PC Length=0.1666 Units=m
New Line.LINE105_141 Bus1=105_140 Bus2=105_142 phases=3 Linecode=4c_.5 Length=0.25155 Units=m
New Line.LINE105_142 Bus1=105_141 Bus2=105_143 phases=3 Linecode=4_PC Length=0.21346 Units=m
New Line.LINE105_143 Bus1=105_142 Bus2=105_144 phases=3 Linecode=4c_.5 Length=7.6159 Units=m
New Line.LINE105_144 Bus1=105_144 Bus2=105_145 phases=3 Linecode=4c_.5 Length=0.30265 Units=m
New Line.LINE105_145 Bus1=105_145 Bus2=105_146 phases=3 Linecode=4c_300_SAC Length=0.51185 Units=m
New Line.LINE105_146 Bus1=105_146 Bus2=105_147 phases=3 Linecode=4c_120_SAC Length=0.15692 Units=m
New Line.LINE105_147 Bus1=105_146 Bus2=105_148 phases=3 Linecode=4c_300_SAC Length=0.69019 Units=m
New Line.LINE105_148 Bus1=105_147 Bus2=105_149 phases=3 Linecode=4c_120_SAC Length=0.065369 Units=m
New Line.LINE105_149 Bus1=105_148 Bus2=105_150 phases=3 Linecode=4c_300_SAC Length=1.5276 Units=m
New Line.LINE105_150 Bus1=105_149 Bus2=105_151 phases=3 Linecode=4c_120_SAC Length=0.050249 Units=m
New Line.LINE105_151 Bus1=105_150 Bus2=105_152 phases=3 Linecode=4c_300_SAC Length=1.4609 Units=m
New Line.LINE105_152 Bus1=105_151 Bus2=105_153 phases=3 Linecode=4c_120_SAC Length=0.062201 Units=m
New Line.LINE105_153 Bus1=105_152 Bus2=105_154 phases=3 Linecode=4c_300_SAC Length=0.37576 Units=m
New Line.LINE105_154 Bus1=105_153 Bus2=105_155 phases=3 Linecode=4c_120_SAC Length=0.098955 Units=m
New Line.LINE105_155 Bus1=105_154 Bus2=105_156 phases=3 Linecode=4c_300_SAC Length=0.19554 Units=m
New Line.LINE105_156 Bus1=105_155 Bus2=105_157 phases=3 Linecode=4c_120_SAC Length=0.087367 Units=m
New Line.LINE105_157 Bus1=105_156 Bus2=105_158 phases=3 Linecode=4c_300_SAC Length=0.46011 Units=m
New Line.LINE105_158 Bus1=105_157 Bus2=105_159 phases=3 Linecode=4c_120_SAC Length=0.28271 Units=m
New Line.LINE105_159 Bus1=105_158 Bus2=105_160 phases=3 Linecode=4c_300_SAC Length=0.20516 Units=m
New Line.LINE105_160 Bus1=105_159 Bus2=105_161 phases=3 Linecode=4c_120_SAC Length=0.11353 Units=m
New Line.LINE105_161 Bus1=105_160 Bus2=105_162 phases=3 Linecode=4c_300_SAC Length=0.13596 Units=m
New Line.LINE105_162 Bus1=105_161 Bus2=105_163 phases=3 Linecode=4c_120_SAC Length=0.13995 Units=m
New Line.LINE105_163 Bus1=105_162 Bus2=105_164 phases=3 Linecode=4c_300_SAC Length=0.25711 Units=m
New Line.LINE105_164 Bus1=105_163 Bus2=105_165 phases=3 Linecode=4c_120_SAC Length=0.55462 Units=m
New Line.LINE105_165 Bus1=105_164 Bus2=105_166 phases=3 Linecode=4c_300_SAC Length=1.017 Units=m
New Line.LINE105_166 Bus1=105_165 Bus2=105_167 phases=3 Linecode=4c_120_SAC Length=0.087864 Units=m
New Line.LINE105_167 Bus1=105_166 Bus2=105_168 phases=3 Linecode=4c_300_SAC Length=2.8104 Units=m
New Line.LINE105_168 Bus1=105_167 Bus2=105_169 phases=3 Linecode=4c_120_SAC Length=0.071176 Units=m
New Line.LINE105_169 Bus1=105_168 Bus2=105_170 phases=3 Linecode=4_PC Length=1.7403 Units=m
New Line.LINE105_170 Bus1=105_168 Bus2=105_171 phases=3 Linecode=4c_.25_UA Length=2.4401 Units=m
New Line.LINE105_171 Bus1=105_168 Bus2=105_172 phases=3 Linecode=4c_.25_UA Length=2.4401 Units=m
New Line.LINE105_172 Bus1=105_169 Bus2=105_173 phases=3 Linecode=4c_120_SAC Length=0.072007 Units=m
New Line.LINE105_173 Bus1=105_170 Bus2=105_174 phases=3 Linecode=4_PC Length=1.4118 Units=m
New Line.LINE105_174 Bus1=105_171 Bus2=105_175 phases=3 Linecode=4c_.25_UA Length=6.4698 Units=m
New Line.LINE105_175 Bus1=105_171 Bus2=105_176 phases=3 Linecode=4c_.25_UA Length=6.4698 Units=m
New Line.LINE105_176 Bus1=105_173 Bus2=105_177 phases=3 Linecode=4c_120_SAC Length=0.086208 Units=m
New Line.LINE105_177 Bus1=105_175 Bus2=105_178 phases=3 Linecode=4c_.06 Length=0.26485 Units=m
New Line.LINE105_178 Bus1=105_175 Bus2=105_179 phases=3 Linecode=4c_.25_UA Length=7.5117 Units=m
New Line.LINE105_179 Bus1=105_175 Bus2=105_180 phases=3 Linecode=4c_.25_UA Length=7.5117 Units=m
New Line.LINE105_180 Bus1=105_177 Bus2=105_181 phases=3 Linecode=4c_120_SAC Length=0.11563 Units=m
New Line.LINE105_181 Bus1=105_178 Bus2=105_182 phases=3 Linecode=4c_.06 Length=0.302 Units=m
New Line.LINE105_182 Bus1=105_179 Bus2=105_183 phases=3 Linecode=2c_.0225 Length=0.31797 Units=m
New Line.LINE105_183 Bus1=105_179 Bus2=105_184 phases=3 Linecode=4c_.25_UA Length=9.9641 Units=m
New Line.LINE105_184 Bus1=105_179 Bus2=105_185 phases=3 Linecode=4c_.25_UA Length=9.9641 Units=m
New Line.LINE105_185 Bus1=105_181 Bus2=105_186 phases=3 Linecode=4c_120_SAC Length=0.12542 Units=m
New Line.LINE105_186 Bus1=105_182 Bus2=105_187 phases=3 Linecode=4c_.06 Length=0.247 Units=m
New Line.LINE105_187 Bus1=105_183 Bus2=105_188 phases=3 Linecode=2c_.0225 Length=0.14841 Units=m
New Line.LINE105_188 Bus1=105_184 Bus2=105_189 phases=3 Linecode=4c_.25_UA Length=1.3877 Units=m
New Line.LINE105_189 Bus1=105_184 Bus2=105_190 phases=3 Linecode=4c_.25_UA Length=1.3058 Units=m
New Line.LINE105_190 Bus1=105_186 Bus2=105_191 phases=3 Linecode=4c_120_SAC Length=0.14361 Units=m
New Line.LINE105_191 Bus1=105_187 Bus2=105_192 phases=3 Linecode=4c_.06 Length=0.192 Units=m
New Line.LINE105_192 Bus1=105_188 Bus2=105_193 phases=3 Linecode=2c_.0225 Length=0.074431 Units=m
New Line.LINE105_193 Bus1=105_189 Bus2=105_194 phases=3 Linecode=4c_.25_UA Length=0.97209 Units=m
New Line.LINE105_194 Bus1=105_189 Bus2=105_195 phases=3 Linecode=4c_.25_UA Length=0.97209 Units=m
New Line.LINE105_195 Bus1=105_189 Bus2=105_196 phases=3 Linecode=4c_.25_UA Length=0.081909 Units=m
New Line.LINE105_196 Bus1=105_190 Bus2=105_197 phases=3 Linecode=2c_.0225 Length=0.82265 Units=m
New Line.LINE105_197 Bus1=105_191 Bus2=105_198 phases=3 Linecode=4c_120_SAC Length=0.17407 Units=m
New Line.LINE105_198 Bus1=105_192 Bus2=105_199 phases=3 Linecode=4c_.06 Length=0.30634 Units=m
New Line.LINE105_199 Bus1=105_193 Bus2=105_200 phases=3 Linecode=2c_.0225 Length=0.12462 Units=m
New Line.LINE105_200 Bus1=105_194 Bus2=105_201 phases=3 Linecode=4c_.25_UA Length=1.3307 Units=m
New Line.LINE105_201 Bus1=105_194 Bus2=105_202 phases=3 Linecode=4c_300_SAC Length=0.8118 Units=m
New Line.LINE105_202 Bus1=105_194 Bus2=105_203 phases=3 Linecode=4c_.25_UA Length=1.3307 Units=m
New Line.LINE105_203 Bus1=105_197 Bus2=105_204 phases=3 Linecode=2c_.0225 Length=0.24284 Units=m
New Line.LINE105_204 Bus1=105_198 Bus2=105_205 phases=3 Linecode=4c_120_SAC Length=0.34636 Units=m
New Line.LINE105_205 Bus1=105_199 Bus2=105_206 phases=3 Linecode=4c_.06 Length=0.19747 Units=m
New Line.LINE105_206 Bus1=105_200 Bus2=105_207 phases=3 Linecode=2c_.0225 Length=0.113 Units=m
New Line.LINE105_207 Bus1=105_201 Bus2=105_208 phases=3 Linecode=4c_.25_UA Length=0.5916 Units=m
New Line.LINE105_208 Bus1=105_201 Bus2=105_209 phases=3 Linecode=4c_.25_UA Length=0.5916 Units=m
New Line.LINE105_209 Bus1=105_202 Bus2=105_210 phases=3 Linecode=4c_300_SAC Length=0.63428 Units=m
New Line.LINE105_210 Bus1=105_204 Bus2=105_211 phases=3 Linecode=2c_.0225 Length=0.26483 Units=m
New Line.LINE105_211 Bus1=105_205 Bus2=105_212 phases=3 Linecode=4c_120_SAC Length=0.21915 Units=m
New Line.LINE105_212 Bus1=105_206 Bus2=105_213 phases=3 Linecode=4c_.06 Length=0.22 Units=m
New Line.LINE105_213 Bus1=105_207 Bus2=105_214 phases=3 Linecode=2c_.0225 Length=0.134 Units=m
New Line.LINE105_214 Bus1=105_208 Bus2=105_215 phases=3 Linecode=4c_.25_UA Length=0.71661 Units=m
New Line.LINE105_215 Bus1=105_208 Bus2=105_216 phases=3 Linecode=4c_.25_UA Length=0.71661 Units=m
New Line.LINE105_216 Bus1=105_210 Bus2=105_217 phases=3 Linecode=4c_300_SAC Length=0.78503 Units=m
New Line.LINE105_217 Bus1=105_211 Bus2=105_218 phases=3 Linecode=2c_.0225 Length=0.38144 Units=m
New Line.LINE105_218 Bus1=105_212 Bus2=105_219 phases=3 Linecode=4c_.12 Length=0.99683 Units=m
New Line.LINE105_219 Bus1=105_213 Bus2=105_220 phases=3 Linecode=4c_.06 Length=0.25931 Units=m
New Line.LINE105_220 Bus1=105_214 Bus2=105_221 phases=3 Linecode=2c_.0225 Length=0.1672 Units=m
New Line.LINE105_221 Bus1=105_215 Bus2=105_222 phases=3 Linecode=4c_.25_UA Length=1.7994 Units=m
New Line.LINE105_222 Bus1=105_215 Bus2=105_223 phases=3 Linecode=4c_.25_UA Length=1.7994 Units=m
New Line.LINE105_223 Bus1=105_217 Bus2=105_224 phases=3 Linecode=4c_300_SAC Length=0.35032 Units=m
New Line.LINE105_224 Bus1=105_218 Bus2=105_225 phases=3 Linecode=2c_.0225 Length=0.42809 Units=m
New Line.LINE105_225 Bus1=105_219 Bus2=105_226 phases=3 Linecode=4c_.12 Length=0.75397 Units=m
New Line.LINE105_226 Bus1=105_220 Bus2=105_227 phases=3 Linecode=4c_.06 Length=0.31113 Units=m
New Line.LINE105_227 Bus1=105_221 Bus2=105_228 phases=3 Linecode=2c_.0225 Length=0.36022 Units=m
New Line.LINE105_228 Bus1=105_222 Bus2=105_229 phases=3 Linecode=4c_.25_UA Length=0.84182 Units=m
New Line.LINE105_229 Bus1=105_222 Bus2=105_230 phases=3 Linecode=4c_.25_UA Length=0.84182 Units=m
New Line.LINE105_230 Bus1=105_224 Bus2=105_231 phases=3 Linecode=4c_300_SAC Length=1.5735 Units=m
New Line.LINE105_231 Bus1=105_225 Bus2=105_232 phases=3 Linecode=2c_.0225 Length=0.29954 Units=m
New Line.LINE105_232 Bus1=105_226 Bus2=105_233 phases=3 Linecode=4c_.12 Length=0.62514 Units=m
New Line.LINE105_233 Bus1=105_227 Bus2=105_234 phases=3 Linecode=4c_.06 Length=0.2736 Units=m
New Line.LINE105_234 Bus1=105_228 Bus2=105_235 phases=3 Linecode=2c_.0225 Length=0.25917 Units=m
New Line.LINE105_235 Bus1=105_229 Bus2=105_236 phases=3 Linecode=4c_.25_UA Length=0.83513 Units=m
New Line.LINE105_236 Bus1=105_229 Bus2=105_237 phases=3 Linecode=4c_.25_UA Length=0.83513 Units=m
New Line.LINE105_237 Bus1=105_232 Bus2=105_238 phases=3 Linecode=2c_.0225 Length=0.40455 Units=m
New Line.LINE105_238 Bus1=105_233 Bus2=105_239 phases=3 Linecode=4c_.12 Length=6.7129 Units=m
New Line.LINE105_239 Bus1=105_234 Bus2=105_240 phases=3 Linecode=4c_.06 Length=0.3689 Units=m
New Line.LINE105_240 Bus1=105_235 Bus2=105_241 phases=3 Linecode=2c_.0225 Length=0.25316 Units=m
New Line.LINE105_241 Bus1=105_236 Bus2=105_242 phases=3 Linecode=4c_.25_UA Length=1.1696 Units=m
New Line.LINE105_242 Bus1=105_236 Bus2=105_243 phases=3 Linecode=4c_.25_UA Length=1.1696 Units=m
New Line.LINE105_243 Bus1=105_238 Bus2=105_244 phases=3 Linecode=2c_.0225 Length=0.34698 Units=m
New Line.LINE105_244 Bus1=105_239 Bus2=105_245 phases=3 Linecode=4c_.12 Length=0.45796 Units=m
New Line.LINE105_245 Bus1=105_239 Bus2=105_246 phases=3 Linecode=4c_.12 Length=2.5415 Units=m
New Line.LINE105_246 Bus1=105_240 Bus2=105_247 phases=3 Linecode=4c_.06 Length=0.23514 Units=m
New Line.LINE105_247 Bus1=105_241 Bus2=105_248 phases=3 Linecode=2c_.0225 Length=0.22128 Units=m
New Line.LINE105_248 Bus1=105_242 Bus2=105_249 phases=3 Linecode=4c_.25_UA Length=0.38931 Units=m
New Line.LINE105_249 Bus1=105_242 Bus2=105_250 phases=3 Linecode=4c_.25_UA Length=0.38931 Units=m
New Line.LINE105_250 Bus1=105_244 Bus2=105_251 phases=3 Linecode=2c_.0225 Length=0.32262 Units=m
New Line.LINE105_251 Bus1=105_245 Bus2=105_252 phases=3 Linecode=4c_.12 Length=0.19 Units=m
New Line.LINE105_252 Bus1=105_246 Bus2=105_253 phases=3 Linecode=4c_.12 Length=6.98 Units=m
New Line.LINE105_253 Bus1=105_247 Bus2=105_254 phases=3 Linecode=4c_.06 Length=0.603 Units=m
New Line.LINE105_254 Bus1=105_248 Bus2=105_255 phases=3 Linecode=2c_.0225 Length=0.33071 Units=m
New Line.LINE105_255 Bus1=105_249 Bus2=105_256 phases=3 Linecode=4c_.25_UA Length=1.1231 Units=m
New Line.LINE105_256 Bus1=105_249 Bus2=105_257 phases=3 Linecode=4c_.25_UA Length=1.1231 Units=m
New Line.LINE105_257 Bus1=105_251 Bus2=105_258 phases=3 Linecode=2c_.0225 Length=0.2793 Units=m
New Line.LINE105_258 Bus1=105_252 Bus2=105_259 phases=3 Linecode=4c_.12 Length=0.26 Units=m
New Line.LINE105_259 Bus1=105_253 Bus2=105_260 phases=3 Linecode=4c_.12 Length=0.55328 Units=m
New Line.LINE105_260 Bus1=105_253 Bus2=105_261 phases=3 Linecode=4c_.12 Length=0.84866 Units=m
New Line.LINE105_261 Bus1=105_255 Bus2=105_262 phases=3 Linecode=2c_.0225 Length=0.329 Units=m
New Line.LINE105_262 Bus1=105_256 Bus2=105_263 phases=3 Linecode=4c_.25_UA Length=0.62669 Units=m
New Line.LINE105_263 Bus1=105_256 Bus2=105_264 phases=3 Linecode=4c_.25_UA Length=0.62669 Units=m
New Line.LINE105_264 Bus1=105_259 Bus2=105_265 phases=3 Linecode=4c_.12 Length=0.24181 Units=m
New Line.LINE105_265 Bus1=105_261 Bus2=105_266 phases=3 Linecode=185_SAC_PC Length=0.945 Units=m
New Line.LINE105_266 Bus1=105_261 Bus2=105_267 phases=3 Linecode=4c_.12 Length=0.95494 Units=m
New Line.LINE105_267 Bus1=105_262 Bus2=105_268 phases=3 Linecode=2c_.0225 Length=0.274 Units=m
New Line.LINE105_268 Bus1=105_263 Bus2=105_269 phases=3 Linecode=4c_.25_UA Length=0.47408 Units=m
New Line.LINE105_269 Bus1=105_263 Bus2=105_270 phases=3 Linecode=4c_.25_UA Length=0.47408 Units=m
New Line.LINE105_270 Bus1=105_266 Bus2=105_271 phases=3 Linecode=25_SAC_XC Length=22.0878 Units=m
New Line.LINE105_271 Bus1=105_266 Bus2=105_272 phases=3 Linecode=25_SAC_XC Length=17.8821 Units=m
New Line.LINE105_272 Bus1=105_266 Bus2=105_273 phases=3 Linecode=25_SAC_XC Length=17.8821 Units=m
New Line.LINE105_273 Bus1=105_266 Bus2=105_274 phases=3 Linecode=25_SAC_XC Length=17.8821 Units=m
New Line.LINE105_274 Bus1=105_266 Bus2=105_275 phases=3 Linecode=25_SAC_XC Length=17.8821 Units=m
New Line.LINE105_275 Bus1=105_266 Bus2=105_276 phases=3 Linecode=25_SAC_XC Length=17.8821 Units=m
New Line.LINE105_276 Bus1=105_267 Bus2=105_277 phases=3 Linecode=2c_.007 Length=0.18278 Units=m
New Line.LINE105_277 Bus1=105_267 Bus2=105_278 phases=3 Linecode=4c_.12 Length=4.1301 Units=m
New Line.LINE105_278 Bus1=105_268 Bus2=105_279 phases=3 Linecode=2c_.0225 Length=5.2411 Units=m
New Line.LINE105_279 Bus1=105_269 Bus2=105_280 phases=3 Linecode=4c_.25_UA Length=6.3546 Units=m
New Line.LINE105_280 Bus1=105_269 Bus2=105_281 phases=3 Linecode=4c_.25_UA Length=6.3546 Units=m
New Line.LINE105_281 Bus1=105_277 Bus2=105_282 phases=3 Linecode=2c_.007 Length=0.165 Units=m
New Line.LINE105_282 Bus1=105_278 Bus2=105_283 phases=3 Linecode=4c_.12 Length=9.726 Units=m
New Line.LINE105_283 Bus1=105_279 Bus2=105_284 phases=3 Linecode=4_XSC Length=2.7373 Units=m
New Line.LINE105_284 Bus1=105_280 Bus2=105_285 phases=3 Linecode=4c_.25_UA Length=11.1282 Units=m
New Line.LINE105_285 Bus1=105_280 Bus2=105_286 phases=3 Linecode=4c_.25_UA Length=11.1282 Units=m
New Line.LINE105_286 Bus1=105_282 Bus2=105_287 phases=3 Linecode=2c_.007 Length=0.19 Units=m
New Line.LINE105_287 Bus1=105_283 Bus2=105_288 phases=3 Linecode=4c_.12 Length=5.4572 Units=m
New Line.LINE105_288 Bus1=105_284 Bus2=105_289 phases=3 Linecode=4_XSC Length=0.12298 Units=m
New Line.LINE105_289 Bus1=105_285 Bus2=105_290 phases=3 Linecode=4c_.25_UA Length=0.86065 Units=m
New Line.LINE105_290 Bus1=105_285 Bus2=105_291 phases=3 Linecode=4c_.25_UA Length=0.86065 Units=m
New Line.LINE105_291 Bus1=105_287 Bus2=105_292 phases=3 Linecode=2c_.007 Length=0.23722 Units=m
New Line.LINE105_292 Bus1=105_288 Bus2=105_293 phases=3 Linecode=4c_.12 Length=4.8933 Units=m
New Line.LINE105_293 Bus1=105_289 Bus2=105_294 phases=3 Linecode=4_XSC Length=0.12301 Units=m
New Line.LINE105_294 Bus1=105_290 Bus2=105_295 phases=3 Linecode=4c_.25_UA Length=0.34112 Units=m
New Line.LINE105_295 Bus1=105_290 Bus2=105_296 phases=3 Linecode=4c_.25_UA Length=0.34112 Units=m
New Line.LINE105_296 Bus1=105_292 Bus2=105_297 phases=3 Linecode=2c_.007 Length=0.237 Units=m
New Line.LINE105_297 Bus1=105_293 Bus2=105_298 phases=3 Linecode=25_SAC_XC Length=16.7103 Units=m
New Line.LINE105_298 Bus1=105_293 Bus2=105_299 phases=3 Linecode=25_SAC_XC Length=16.7103 Units=m
New Line.LINE105_299 Bus1=105_293 Bus2=105_300 phases=3 Linecode=25_SAC_XC Length=16.7103 Units=m
New Line.LINE105_300 Bus1=105_293 Bus2=105_301 phases=3 Linecode=25_SAC_XC Length=16.7103 Units=m
New Line.LINE105_301 Bus1=105_293 Bus2=105_302 phases=3 Linecode=4c_.12 Length=10.4419 Units=m
New Line.LINE105_302 Bus1=105_294 Bus2=105_303 phases=3 Linecode=4_XSC Length=0.12218 Units=m
New Line.LINE105_303 Bus1=105_295 Bus2=105_304 phases=3 Linecode=4c_.25_UA Length=0.2291 Units=m
New Line.LINE105_304 Bus1=105_295 Bus2=105_305 phases=3 Linecode=4c_.25_UA Length=0.2291 Units=m
New Line.LINE105_305 Bus1=105_297 Bus2=105_306 phases=3 Linecode=2c_.007 Length=0.166 Units=m
New Line.LINE105_306 Bus1=105_302 Bus2=105_307 phases=3 Linecode=4c_.12 Length=4.5021 Units=m
New Line.LINE105_307 Bus1=105_303 Bus2=105_308 phases=3 Linecode=4_XSC Length=0.12313 Units=m
New Line.LINE105_308 Bus1=105_304 Bus2=105_309 phases=3 Linecode=4c_.25_UA Length=0.19556 Units=m
New Line.LINE105_309 Bus1=105_304 Bus2=105_310 phases=3 Linecode=4c_.25_UA Length=0.19556 Units=m
New Line.LINE105_310 Bus1=105_306 Bus2=105_311 phases=3 Linecode=2c_.007 Length=0.2019 Units=m
New Line.LINE105_311 Bus1=105_307 Bus2=105_312 phases=3 Linecode=25_SAC_XC Length=7.4638 Units=m
New Line.LINE105_312 Bus1=105_307 Bus2=105_313 phases=3 Linecode=4c_.12 Length=5.3093 Units=m
New Line.LINE105_313 Bus1=105_308 Bus2=105_314 phases=3 Linecode=4_XSC Length=0.12297 Units=m