New Line.LINE1 Bus1=1 Bus2=2 phases=3 Linecode=3c_300_SAC_XC Length=0.76971 Units=m
New Line.LINE2 Bus1=2 Bus2=3 phases=3 Linecode=3c_300_SAC_XC Length=0.071175 Units=m
New Line.LINE3 Bus1=3 Bus2=4 phases=3 Linecode=3c_300_SAC_XC Length=0.071281 Units=m
New Line.LINE4 Bus1=4 Bus2=5 phases=3 Linecode=3c_300_SAC_XC Length=0.070711 Units=m
New Line.LINE5 Bus1=5 Bus2=6 phases=3 Linecode=3c_300_SAC_XC Length=0.071029 Units=m
New Line.LINE6 Bus1=6 Bus2=7 phases=3 Linecode=3c_300_SAC_XC Length=0.071588 Units=m
New Line.LINE7 Bus1=7 Bus2=8 phases=3 Linecode=3c_300_SAC_XC Length=0.071309 Units=m
New Line.LINE8 Bus1=8 Bus2=9 phases=3 Linecode=3c_300_SAC_XC Length=0.071176 Units=m
New Line.LINE9 Bus1=9 Bus2=10 phases=3 Linecode=3c_300_SAC_XC Length=0.070456 Units=m
New Line.LINE10 Bus1=10 Bus2=11 phases=3 Linecode=3c_300_SAC_XC Length=0.73721 Units=m
New Line.LINE11 Bus1=11 Bus2=12 phases=3 Linecode=3c_300_SAC_XC Length=1.7693 Units=m
New Line.LINE12 Bus1=12 Bus2=13 phases=3 Linecode=3c_300_SAC_XC Length=0.18318 Units=m
New Line.LINE13 Bus1=13 Bus2=14 phases=3 Linecode=3c_300_SAC_XC Length=0.18253 Units=m
New Line.LINE14 Bus1=14 Bus2=15 phases=3 Linecode=3c_300_SAC_XC Length=0.18246 Units=m
New Line.LINE15 Bus1=15 Bus2=16 phases=3 Linecode=3c_300_SAC_XC Length=0.18308 Units=m
New Line.LINE16 Bus1=16 Bus2=17 phases=3 Linecode=3c_300_SAC_XC Length=0.18217 Units=m
New Line.LINE17 Bus1=17 Bus2=18 phases=3 Linecode=3c_300_SAC_XC Length=0.18318 Units=m
New Line.LINE18 Bus1=18 Bus2=19 phases=3 Linecode=3c_300_SAC_XC Length=0.18301 Units=m
New Line.LINE19 Bus1=19 Bus2=20 phases=3 Linecode=3c_300_SAC_XC Length=0.1818 Units=m
New Line.LINE20 Bus1=20 Bus2=21 phases=3 Linecode=3c_300_SAC_XC Length=1.3146 Units=m
New Line.LINE21 Bus1=21 Bus2=22 phases=3 Linecode=3c_300_SAC_XC Length=1.5617 Units=m
New Line.LINE22 Bus1=22 Bus2=23 phases=3 Linecode=3c_300_SAC_XC Length=0.88888 Units=m
New Line.LINE23 Bus1=23 Bus2=24 phases=3 Linecode=3c_300_SAC_XC Length=1.1934 Units=m
New Line.LINE24 Bus1=24 Bus2=25 phases=3 Linecode=3c_300_SAC_XC Length=0.85425 Units=m
New Line.LINE25 Bus1=25 Bus2=26 phases=3 Linecode=3c_300_SAC_XC Length=1.6709 Units=m
New Line.LINE26 Bus1=26 Bus2=27 phases=3 Linecode=3c_300_SAC_XC Length=1.2943 Units=m
New Line.LINE27 Bus1=27 Bus2=28 phases=3 Linecode=3c_300_SAC_XC Length=7.4299 Units=m
New Line.LINE28 Bus1=28 Bus2=29 phases=3 Linecode=3c_300_SAC_XC Length=9.8894 Units=m
New Line.LINE29 Bus1=29 Bus2=30 phases=3 Linecode=4c_300_SAC Length=2.6486 Units=m
New Line.LINE30 Bus1=30 Bus2=31 phases=3 Linecode=4c_300_SAC Length=0.16603 Units=m
New Line.LINE31 Bus1=31 Bus2=32 phases=3 Linecode=4c_300_SAC Length=0.11455 Units=m
New Line.LINE32 Bus1=32 Bus2=33 phases=3 Linecode=4c_300_SAC Length=0.14459 Units=m
New Line.LINE33 Bus1=33 Bus2=34 phases=3 Linecode=4c_300_SAC Length=0.049738 Units=m
New Line.LINE34 Bus1=34 Bus2=35 phases=3 Linecode=4c_300_SAC Length=0.098434 Units=m
New Line.LINE35 Bus1=35 Bus2=36 phases=3 Linecode=4c_300_SAC Length=0.13223 Units=m
New Line.LINE36 Bus1=36 Bus2=37 phases=3 Linecode=4c_300_SAC Length=0.067066 Units=m
New Line.LINE37 Bus1=37 Bus2=38 phases=3 Linecode=4c_300_SAC Length=0.082202 Units=m
New Line.LINE38 Bus1=38 Bus2=39 phases=3 Linecode=4c_300_SAC Length=0.092972 Units=m
New Line.LINE39 Bus1=39 Bus2=40 phases=3 Linecode=4c_300_SAC Length=0.092591 Units=m
New Line.LINE40 Bus1=40 Bus2=41 phases=3 Linecode=4c_300_SAC Length=0.11341 Units=m
New Line.LINE41 Bus1=41 Bus2=42 phases=3 Linecode=4c_300_SAC Length=0.13406 Units=m
New Line.LINE42 Bus1=42 Bus2=43 phases=3 Linecode=4c_300_SAC Length=0.14982 Units=m
New Line.LINE43 Bus1=43 Bus2=44 phases=3 Linecode=4c_300_SAC Length=0.13252 Units=m
New Line.LINE44 Bus1=44 Bus2=45 phases=3 Linecode=4c_300_SAC Length=0.57714 Units=m
New Line.LINE45 Bus1=45 Bus2=46 phases=3 Linecode=4c_300_SAC Length=0.563 Units=m
New Line.LINE46 Bus1=46 Bus2=47 phases=3 Linecode=4c_300_SAC Length=0.45674 Units=m
New Line.LINE47 Bus1=47 Bus2=48 phases=3 Linecode=4c_300_SAC Length=0.3907 Units=m
New Line.LINE48 Bus1=48 Bus2=49 phases=3 Linecode=4c_.5 Length=0.2101 Units=m
New Line.LINE49 Bus1=49 Bus2=50 phases=3 Linecode=4c_.5 Length=0.26337 Units=m
New Line.LINE50 Bus1=50 Bus2=51 phases=3 Linecode=4c_.5 Length=6.2219 Units=m
New Line.LINE51 Bus1=51 Bus2=52 phases=3 Linecode=4c_.5 Length=0.039925 Units=m
New Line.LINE52 Bus1=52 Bus2=53 phases=3 Linecode=4c_.5 Length=0.044102 Units=m
New Line.LINE53 Bus1=53 Bus2=54 phases=3 Linecode=4c_.5 Length=0.036797 Units=m
New Line.LINE54 Bus1=54 Bus2=55 phases=3 Linecode=4c_.5 Length=0.037162 Units=m
New Line.LINE55 Bus1=55 Bus2=56 phases=3 Linecode=4c_.5 Length=0.031321 Units=m
New Line.LINE56 Bus1=56 Bus2=57 phases=3 Linecode=4c_.5 Length=0.042013 Units=m
New Line.LINE57 Bus1=57 Bus2=58 phases=3 Linecode=4c_.5 Length=0.05824 Units=m
New Line.LINE58 Bus1=58 Bus2=59 phases=3 Linecode=4c_.5 Length=3.4854 Units=m
New Line.LINE60 Bus1=59 Bus2=61 phases=3 Linecode=4c_.5 Length=2.0964 Units=m
New Line.LINE62 Bus1=61 Bus2=63 phases=3 Linecode=4c_.5 Length=0.92946 Units=m
New Line.LINE65 Bus1=63 Bus2=66 phases=3 Linecode=4c_.5 Length=0.29706 Units=m
New Line.LINE68 Bus1=66 Bus2=69 phases=3 Linecode=4c_.5 Length=8.4739 Units=m
New Line.LINE71 Bus1=69 Bus2=72 phases=3 Linecode=4c_.5 Length=6.959 Units=m
New Line.LINE74 Bus1=72 Bus2=75 phases=3 Linecode=4c_.5 Length=8.804 Units=m
New Line.LINE78 Bus1=75 Bus2=79 phases=3 Linecode=4c_.5 Length=6.9545 Units=m
New Line.LINE82 Bus1=79 Bus2=83 phases=3 Linecode=4c_.5 Length=0.24571 Units=m
New Line.LINE86 Bus1=83 Bus2=87 phases=3 Linecode=4c_.5 Length=0.49953 Units=m
New Line.LINE91 Bus1=87 Bus2=92 phases=3 Linecode=4c_.5 Length=0.35324 Units=m
New Line.LINE95 Bus1=92 Bus2=96 phases=3 Linecode=4c_.5 Length=0.23411 Units=m
New Line.LINE98 Bus1=96 Bus2=99 phases=3 Linecode=4c_.5 Length=0.23087 Units=m
New Line.LINE101 Bus1=99 Bus2=102 phases=3 Linecode=4c_.5 Length=0.25 Units=m
New Line.LINE104 Bus1=102 Bus2=105 phases=3 Linecode=4c_.5 Length=0.19606 Units=m
New Line.LINE107 Bus1=105 Bus2=108 phases=3 Linecode=4c_.5 Length=0.78995 Units=m
New Line.LINE110 Bus1=108 Bus2=111 phases=3 Linecode=4c_.5 Length=0.75667 Units=m
New Line.LINE113 Bus1=111 Bus2=114 phases=3 Linecode=4c_.5 Length=1.8361 Units=m
New Line.LINE116 Bus1=114 Bus2=117 phases=3 Linecode=3c_300_SAC_ASN Length=9.9833 Units=m
New Line.LINE119 Bus1=117 Bus2=120 phases=3 Linecode=4c_.5 Length=3.9504 Units=m
New Line.LINE121 Bus1=120 Bus2=122 phases=3 Linecode=4c_.5 Length=15.3344 Units=m
New Line.LINE123 Bus1=122 Bus2=124 phases=3 Linecode=4c_.5 Length=5.435 Units=m
New Line.LINE125 Bus1=124 Bus2=126 phases=3 Linecode=4c_.5 Length=4.4631 Units=m
New Line.LINE127 Bus1=126 Bus2=128 phases=3 Linecode=4c_.5 Length=5.8667 Units=m
New Line.LINE129 Bus1=128 Bus2=130 phases=3 Linecode=4c_.5 Length=12.4059 Units=m
New Line.LINE131 Bus1=130 Bus2=132 phases=3 Linecode=4c_.5 Length=0.75942 Units=m
New Line.LINE133 Bus1=132 Bus2=134 phases=3 Linecode=4c_.5 Length=0.4209 Units=m
New Line.LINE135 Bus1=134 Bus2=136 phases=3 Linecode=4c_.5 Length=0.37448 Units=m
New Line.LINE137 Bus1=136 Bus2=138 phases=3 Linecode=4c_.5 Length=0.27775 Units=m
New Line.LINE139 Bus1=138 Bus2=140 phases=3 Linecode=4c_.5 Length=0.21153 Units=m
New Line.LINE141 Bus1=140 Bus2=142 phases=3 Linecode=4c_.5 Length=0.25155 Units=m
New Line.LINE143 Bus1=142 Bus2=144 phases=3 Linecode=4c_.5 Length=7.6159 Units=m
New Line.LINE144 Bus1=144 Bus2=145 phases=3 Linecode=4c_.5 Length=0.30265 Units=m
New Line.LINE145 Bus1=145 Bus2=146 phases=3 Linecode=4c_300_SAC Length=0.51185 Units=m
New Line.LINE146 Bus1=146 Bus2=147 phases=3 Linecode=4c_120_SAC Length=0.15692 Units=m
New Line.LINE148 Bus1=147 Bus2=149 phases=3 Linecode=4c_120_SAC Length=0.065369 Units=m
New Line.LINE150 Bus1=149 Bus2=151 phases=3 Linecode=4c_120_SAC Length=0.050249 Units=m
New Line.LINE152 Bus1=151 Bus2=153 phases=3 Linecode=4c_120_SAC Length=0.062201 Units=m
New Line.LINE154 Bus1=153 Bus2=155 phases=3 Linecode=4c_120_SAC Length=0.098955 Units=m
New Line.LINE156 Bus1=155 Bus2=157 phases=3 Linecode=4c_120_SAC Length=0.087367 Units=m
New Line.LINE158 Bus1=157 Bus2=159 phases=3 Linecode=4c_120_SAC Length=0.28271 Units=m
New Line.LINE160 Bus1=159 Bus2=161 phases=3 Linecode=4c_120_SAC Length=0.11353 Units=m
New Line.LINE162 Bus1=161 Bus2=163 phases=3 Linecode=4c_120_SAC Length=0.13995 Units=m
New Line.LINE164 Bus1=163 Bus2=165 phases=3 Linecode=4c_120_SAC Length=0.55462 Units=m
New Line.LINE166 Bus1=165 Bus2=167 phases=3 Linecode=4c_120_SAC Length=0.087864 Units=m
New Line.LINE168 Bus1=167 Bus2=169 phases=3 Linecode=4c_120_SAC Length=0.071176 Units=m
New Line.LINE172 Bus1=169 Bus2=173 phases=3 Linecode=4c_120_SAC Length=0.072007 Units=m
New Line.LINE176 Bus1=173 Bus2=177 phases=3 Linecode=4c_120_SAC Length=0.086208 Units=m
New Line.LINE180 Bus1=177 Bus2=181 phases=3 Linecode=4c_120_SAC Length=0.11563 Units=m
New Line.LINE185 Bus1=181 Bus2=186 phases=3 Linecode=4c_120_SAC Length=0.12542 Units=m
New Line.LINE190 Bus1=186 Bus2=191 phases=3 Linecode=4c_120_SAC Length=0.14361 Units=m
New Line.LINE197 Bus1=191 Bus2=198 phases=3 Linecode=4c_120_SAC Length=0.17407 Units=m
New Line.LINE204 Bus1=198 Bus2=205 phases=3 Linecode=4c_120_SAC Length=0.34636 Units=m
New Line.LINE211 Bus1=205 Bus2=212 phases=3 Linecode=4c_120_SAC Length=0.21915 Units=m
New Line.LINE218 Bus1=212 Bus2=219 phases=3 Linecode=4c_.12 Length=0.99683 Units=m
New Line.LINE225 Bus1=219 Bus2=226 phases=3 Linecode=4c_.12 Length=0.75397 Units=m
New Line.LINE232 Bus1=226 Bus2=233 phases=3 Linecode=4c_.12 Length=0.62514 Units=m
New Line.LINE238 Bus1=233 Bus2=239 phases=3 Linecode=4c_.12 Length=6.7129 Units=m
New Line.LINE245 Bus1=239 Bus2=246 phases=3 Linecode=4c_.12 Length=2.5415 Units=m
New Line.LINE252 Bus1=246 Bus2=253 phases=3 Linecode=4c_.12 Length=6.98 Units=m
New Line.LINE260 Bus1=253 Bus2=261 phases=3 Linecode=4c_.12 Length=0.84866 Units=m
New Line.LINE265 Bus1=261 Bus2=266 phases=3 Linecode=185_SAC_PC Length=0.945 Units=m
New Line.LINE270 Bus1=266 Bus2=271 phases=3 Linecode=25_SAC_XC Length=22.0878 Units=m
New Line.LINE271 Bus1=266 Bus2=272 phases=3 Linecode=25_SAC_XC Length=17.8821 Units=m
New Line.LINE272 Bus1=266 Bus2=273 phases=3 Linecode=25_SAC_XC Length=17.8821 Units=m
New Line.LINE273 Bus1=266 Bus2=274 phases=3 Linecode=25_SAC_XC Length=17.8821 Units=m
New Line.LINE274 Bus1=266 Bus2=275 phases=3 Linecode=25_SAC_XC Length=17.8821 Units=m
New Line.LINE275 Bus1=266 Bus2=276 phases=3 Linecode=25_SAC_XC Length=17.8821 Units=m
New Line.LINE297 Bus1=293 Bus2=298 phases=3 Linecode=25_SAC_XC Length=16.7103 Units=m
New Line.LINE298 Bus1=293 Bus2=299 phases=3 Linecode=25_SAC_XC Length=16.7103 Units=m
New Line.LINE299 Bus1=293 Bus2=300 phases=3 Linecode=25_SAC_XC Length=16.7103 Units=m
New Line.LINE300 Bus1=293 Bus2=301 phases=3 Linecode=25_SAC_XC Length=16.7103 Units=m
New Line.LINE301 Bus1=293 Bus2=302 phases=3 Linecode=4c_.12 Length=10.4419 Units=m
New Line.LINE306 Bus1=302 Bus2=307 phases=3 Linecode=4c_.12 Length=4.5021 Units=m
New Line.LINE311 Bus1=307 Bus2=312 phases=3 Linecode=25_SAC_XC Length=7.4638 Units=m
New Line.LINECmpd_0 Bus1=261 Bus2=293 phases=3 Linecode=4c_.12 Length=25.16154 Units=m
