New Line.LINE187_1 Bus1=187_1 Bus2=187_2 phases=3 Linecode=4c_.2 Length=0.23123 Units=m
New Line.LINE187_2 Bus1=187_2 Bus2=187_3 phases=3 Linecode=4c_.2 Length=0.066483 Units=m
New Line.LINE187_3 Bus1=187_3 Bus2=187_4 phases=3 Linecode=4c_.2 Length=0.056885 Units=m
New Line.LINE187_4 Bus1=187_4 Bus2=187_5 phases=3 Linecode=4c_.2 Length=0.052011 Units=m
New Line.LINE187_5 Bus1=187_5 Bus2=187_6 phases=3 Linecode=4c_.2 Length=0.059227 Units=m
New Line.LINE187_6 Bus1=187_6 Bus2=187_7 phases=3 Linecode=4c_.2 Length=0.056081 Units=m
New Line.LINE187_7 Bus1=187_7 Bus2=187_8 phases=3 Linecode=4c_.2 Length=0.053535 Units=m
New Line.LINE187_8 Bus1=187_8 Bus2=187_9 phases=3 Linecode=4c_.2 Length=0.053759 Units=m
New Line.LINE187_9 Bus1=187_9 Bus2=187_10 phases=3 Linecode=4c_.2 Length=0.071847 Units=m
New Line.LINE187_10 Bus1=187_10 Bus2=187_11 phases=3 Linecode=4c_.2 Length=0.14583 Units=m
New Line.LINE187_11 Bus1=187_11 Bus2=187_12 phases=3 Linecode=4c_.2 Length=0.039357 Units=m
New Line.LINE187_12 Bus1=187_12 Bus2=187_13 phases=3 Linecode=4c_.2 Length=0.77514 Units=m
New Line.LINE187_13 Bus1=187_13 Bus2=187_14 phases=3 Linecode=4c_.2 Length=0.086539 Units=m
New Line.LINE187_14 Bus1=187_14 Bus2=187_15 phases=3 Linecode=4c_.2 Length=0.078103 Units=m
New Line.LINE187_15 Bus1=187_15 Bus2=187_16 phases=3 Linecode=4c_.2 Length=0.065276 Units=m
New Line.LINE187_16 Bus1=187_16 Bus2=187_17 phases=3 Linecode=4c_.2 Length=0.06703 Units=m
New Line.LINE187_17 Bus1=187_17 Bus2=187_18 phases=3 Linecode=4c_.2 Length=0.069007 Units=m
New Line.LINE187_18 Bus1=187_18 Bus2=187_19 phases=3 Linecode=4c_.2 Length=0.053339 Units=m
New Line.LINE187_19 Bus1=187_19 Bus2=187_20 phases=3 Linecode=4c_.2 Length=0.053338 Units=m
New Line.LINE187_20 Bus1=187_20 Bus2=187_21 phases=3 Linecode=4c_.2 Length=0.067743 Units=m
New Line.LINE187_21 Bus1=187_21 Bus2=187_22 phases=3 Linecode=4c_.2 Length=0.07571 Units=m
New Line.LINE187_22 Bus1=187_22 Bus2=187_23 phases=3 Linecode=4c_.2 Length=0.072732 Units=m
New Line.LINE187_23 Bus1=187_23 Bus2=187_24 phases=3 Linecode=4c_.2 Length=2.2066 Units=m
New Line.LINE187_24 Bus1=187_24 Bus2=187_25 phases=3 Linecode=4c_.2 Length=3.0678 Units=m
New Line.LINE187_25 Bus1=187_25 Bus2=187_26 phases=3 Linecode=4c_.2 Length=1.0245 Units=m
New Line.LINE187_26 Bus1=187_26 Bus2=187_27 phases=3 Linecode=4c_.2 Length=12.1928 Units=m
New Line.LINE187_27 Bus1=187_27 Bus2=187_28 phases=3 Linecode=4c_.2 Length=1.9178 Units=m
New Line.LINE187_28 Bus1=187_28 Bus2=187_29 phases=3 Linecode=4c_.2 Length=0.35866 Units=m
New Line.LINE187_29 Bus1=187_29 Bus2=187_30 phases=3 Linecode=4c_.2 Length=0.24648 Units=m
New Line.LINE187_30 Bus1=187_30 Bus2=187_31 phases=3 Linecode=4c_.2 Length=0.23008 Units=m
New Line.LINE187_31 Bus1=187_31 Bus2=187_32 phases=3 Linecode=4c_.2 Length=0.29341 Units=m
New Line.LINE187_32 Bus1=187_32 Bus2=187_33 phases=3 Linecode=4c_.2 Length=0.20565 Units=m
New Line.LINE187_33 Bus1=187_33 Bus2=187_34 phases=3 Linecode=4c_.2 Length=0.25816 Units=m
New Line.LINE187_34 Bus1=187_34 Bus2=187_35 phases=3 Linecode=4c_.2 Length=0.34399 Units=m
New Line.LINE187_35 Bus1=187_35 Bus2=187_36 phases=3 Linecode=4c_.2 Length=0.38978 Units=m
New Line.LINE187_36 Bus1=187_36 Bus2=187_37 phases=3 Linecode=4c_.2 Length=0.39801 Units=m
New Line.LINE187_37 Bus1=187_37 Bus2=187_38 phases=3 Linecode=4c_.2 Length=15.806 Units=m
New Line.LINE187_38 Bus1=187_38 Bus2=187_39 phases=3 Linecode=2c_.0225 Length=6.9688 Units=m
New Line.LINE187_39 Bus1=187_38 Bus2=187_40 phases=3 Linecode=4c_.2 Length=10.9622 Units=m
New Line.LINE187_40 Bus1=187_39 Bus2=187_41 phases=3 Linecode=2c_.0225 Length=2.0364 Units=m
New Line.LINE187_41 Bus1=187_39 Bus2=187_42 phases=3 Linecode=2c_.0225 Length=7.2963 Units=m
New Line.LINE187_42 Bus1=187_40 Bus2=187_43 phases=3 Linecode=4c_.2 Length=3.8927 Units=m
New Line.LINE187_43 Bus1=187_41 Bus2=187_44 phases=3 Linecode=2c_.0225 Length=0.10813 Units=m
New Line.LINE187_44 Bus1=187_41 Bus2=187_45 phases=3 Linecode=2c_.0225 Length=3.6469 Units=m
New Line.LINE187_45 Bus1=187_42 Bus2=187_46 phases=3 Linecode=2c_.0225 Length=0.35228 Units=m
New Line.LINE187_46 Bus1=187_43 Bus2=187_47 phases=3 Linecode=4c_.2 Length=0.67783 Units=m
New Line.LINE187_47 Bus1=187_44 Bus2=187_48 phases=3 Linecode=2c_.0225 Length=0.15555 Units=m
New Line.LINE187_48 Bus1=187_46 Bus2=187_49 phases=3 Linecode=2c_.0225 Length=0.328 Units=m
New Line.LINE187_49 Bus1=187_47 Bus2=187_50 phases=3 Linecode=4c_.1 Length=5.5127 Units=m
New Line.LINE187_50 Bus1=187_48 Bus2=187_51 phases=3 Linecode=2c_.0225 Length=0.09803 Units=m
New Line.LINE187_51 Bus1=187_49 Bus2=187_52 phases=3 Linecode=2c_.0225 Length=0.31018 Units=m
New Line.LINE187_52 Bus1=187_50 Bus2=187_53 phases=3 Linecode=4c_.1 Length=4.4889 Units=m
New Line.LINE187_53 Bus1=187_50 Bus2=187_54 phases=3 Linecode=2c_.007_VIR Length=1.4255 Units=m
New Line.LINE187_54 Bus1=187_51 Bus2=187_55 phases=3 Linecode=2c_.0225 Length=0.083024 Units=m
New Line.LINE187_55 Bus1=187_52 Bus2=187_56 phases=3 Linecode=2c_.0225 Length=0.15388 Units=m
New Line.LINE187_56 Bus1=187_53 Bus2=187_57 phases=3 Linecode=2c_.0225 Length=0.16929 Units=m
New Line.LINE187_57 Bus1=187_53 Bus2=187_58 phases=3 Linecode=4c_.1 Length=0.8918 Units=m
New Line.LINE187_58 Bus1=187_54 Bus2=187_59 phases=3 Linecode=2c_.007_VIR Length=0.18921 Units=m
New Line.LINE187_59 Bus1=187_55 Bus2=187_60 phases=3 Linecode=2c_.0225 Length=0.08805 Units=m
New Line.LINE187_60 Bus1=187_56 Bus2=187_61 phases=3 Linecode=2c_.0225 Length=0.25478 Units=m
New Line.LINE187_61 Bus1=187_57 Bus2=187_62 phases=3 Linecode=2c_.0225 Length=0.064381 Units=m
New Line.LINE187_62 Bus1=187_58 Bus2=187_63 phases=3 Linecode=2c_.0225 Length=0.28734 Units=m
New Line.LINE187_63 Bus1=187_58 Bus2=187_64 phases=3 Linecode=4c_.1 Length=34.1742 Units=m
New Line.LINE187_64 Bus1=187_59 Bus2=187_65 phases=3 Linecode=2c_.007_VIR Length=0.23602 Units=m
New Line.LINE187_65 Bus1=187_60 Bus2=187_66 phases=3 Linecode=2c_.0225 Length=0.094869 Units=m
New Line.LINE187_66 Bus1=187_61 Bus2=187_67 phases=3 Linecode=2c_.0225 Length=1.9383 Units=m
New Line.LINE187_67 Bus1=187_62 Bus2=187_68 phases=3 Linecode=2c_.0225 Length=0.040805 Units=m
New Line.LINE187_68 Bus1=187_63 Bus2=187_69 phases=3 Linecode=2c_.0225 Length=0.088955 Units=m
New Line.LINE187_69 Bus1=187_64 Bus2=187_70 phases=3 Linecode=4c_.1 Length=0.78445 Units=m
New Line.LINE187_70 Bus1=187_64 Bus2=187_71 phases=3 Linecode=2c_.0225_UA Length=0.27004 Units=m
New Line.LINE187_71 Bus1=187_65 Bus2=187_72 phases=3 Linecode=2c_.007_VIR Length=0.18004 Units=m
New Line.LINE187_72 Bus1=187_66 Bus2=187_73 phases=3 Linecode=2c_.0225 Length=0.060465 Units=m
New Line.LINE187_73 Bus1=187_67 Bus2=187_74 phases=3 Linecode=2c_.0225 Length=2.8068 Units=m
New Line.LINE187_74 Bus1=187_68 Bus2=187_75 phases=3 Linecode=2c_.0225 Length=0.078518 Units=m
New Line.LINE187_75 Bus1=187_69 Bus2=187_76 phases=3 Linecode=2c_.0225 Length=0.07 Units=m
New Line.LINE187_76 Bus1=187_70 Bus2=187_77 phases=3 Linecode=4c_.1 Length=14.3598 Units=m
New Line.LINE187_77 Bus1=187_70 Bus2=187_78 phases=3 Linecode=2c_.007_VIR Length=0.88535 Units=m
New Line.LINE187_78 Bus1=187_71 Bus2=187_79 phases=3 Linecode=2c_.0225_UA Length=0.099319 Units=m
New Line.LINE187_79 Bus1=187_72 Bus2=187_80 phases=3 Linecode=2c_.007_VIR Length=0.15256 Units=m
New Line.LINE187_80 Bus1=187_73 Bus2=187_81 phases=3 Linecode=2c_.0225 Length=0.1364 Units=m
New Line.LINE187_81 Bus1=187_74 Bus2=187_82 phases=3 Linecode=2c_.0225 Length=0.4993 Units=m
New Line.LINE187_82 Bus1=187_75 Bus2=187_83 phases=3 Linecode=2c_.0225 Length=0.072945 Units=m
New Line.LINE187_83 Bus1=187_76 Bus2=187_84 phases=3 Linecode=2c_.0225 Length=0.1883 Units=m
New Line.LINE187_84 Bus1=187_77 Bus2=187_85 phases=3 Linecode=4c_.1 Length=13.9136 Units=m
New Line.LINE187_85 Bus1=187_77 Bus2=187_86 phases=3 Linecode=4c_.1 Length=0.57775 Units=m
New Line.LINE187_86 Bus1=187_79 Bus2=187_87 phases=3 Linecode=2c_.0225_UA Length=0.11761 Units=m
New Line.LINE187_87 Bus1=187_80 Bus2=187_88 phases=3 Linecode=2c_.007_VIR Length=0.14318 Units=m
New Line.LINE187_88 Bus1=187_81 Bus2=187_89 phases=3 Linecode=2c_.0225 Length=0.09588 Units=m
New Line.LINE187_89 Bus1=187_82 Bus2=187_90 phases=3 Linecode=2c_.0225 Length=0.26286 Units=m
New Line.LINE187_90 Bus1=187_83 Bus2=187_91 phases=3 Linecode=2c_.0225 Length=0.082037 Units=m
New Line.LINE187_91 Bus1=187_84 Bus2=187_92 phases=3 Linecode=2c_.0225 Length=0.3292 Units=m
New Line.LINE187_92 Bus1=187_85 Bus2=187_93 phases=3 Linecode=4c_.1 Length=0.58856 Units=m
New Line.LINE187_93 Bus1=187_85 Bus2=187_94 phases=3 Linecode=2c_.0225 Length=5.6745 Units=m
New Line.LINE187_94 Bus1=187_86 Bus2=187_95 phases=3 Linecode=4c_.1 Length=0.26759 Units=m
New Line.LINE187_95 Bus1=187_87 Bus2=187_96 phases=3 Linecode=2c_.0225_UA Length=0.093145 Units=m
New Line.LINE187_96 Bus1=187_88 Bus2=187_97 phases=3 Linecode=2c_.007_VIR Length=0.2499 Units=m
New Line.LINE187_97 Bus1=187_89 Bus2=187_98 phases=3 Linecode=2c_.0225 Length=0.093134 Units=m
New Line.LINE187_98 Bus1=187_90 Bus2=187_99 phases=3 Linecode=2c_.0225 Length=0.21079 Units=m
New Line.LINE187_99 Bus1=187_91 Bus2=187_100 phases=3 Linecode=2c_.0225 Length=0.2853 Units=m
New Line.LINE187_100 Bus1=187_92 Bus2=187_101 phases=3 Linecode=2c_.0225 Length=1.1977 Units=m
New Line.LINE187_101 Bus1=187_93 Bus2=187_102 phases=3 Linecode=4c_.1 Length=28.0288 Units=m
New Line.LINE187_102 Bus1=187_93 Bus2=187_103 phases=3 Linecode=2c_.0225 Length=1.8082 Units=m
New Line.LINE187_103 Bus1=187_94 Bus2=187_104 phases=3 Linecode=2c_.0225 Length=0.46315 Units=m
New Line.LINE187_104 Bus1=187_95 Bus2=187_105 phases=3 Linecode=4c_.1 Length=0.23754 Units=m
New Line.LINE187_105 Bus1=187_96 Bus2=187_106 phases=3 Linecode=2c_.0225_UA Length=0.95704 Units=m
New Line.LINE187_106 Bus1=187_97 Bus2=187_107 phases=3 Linecode=4_PSC Length=0.70204 Units=m
New Line.LINE187_107 Bus1=187_98 Bus2=187_108 phases=3 Linecode=2c_.0225 Length=0.15261 Units=m
New Line.LINE187_108 Bus1=187_99 Bus2=187_109 phases=3 Linecode=2c_.0225 Length=0.20583 Units=m
New Line.LINE187_109 Bus1=187_100 Bus2=187_110 phases=3 Linecode=2c_.0225 Length=0.098153 Units=m
New Line.LINE187_110 Bus1=187_101 Bus2=187_111 phases=3 Linecode=2c_.0225 Length=6.2702 Units=m
New Line.LINE187_111 Bus1=187_102 Bus2=187_112 phases=3 Linecode=4c_.1 Length=6.884 Units=m
New Line.LINE187_112 Bus1=187_103 Bus2=187_113 phases=3 Linecode=2c_.0225 Length=3.7253 Units=m
New Line.LINE187_113 Bus1=187_104 Bus2=187_114 phases=3 Linecode=2c_.0225 Length=0.48376 Units=m
New Line.LINE187_114 Bus1=187_105 Bus2=187_115 phases=3 Linecode=4c_.1 Length=0.39108 Units=m
New Line.LINE187_115 Bus1=187_106 Bus2=187_116 phases=3 Linecode=2c_.0225_UA Length=12.2732 Units=m
New Line.LINE187_116 Bus1=187_107 Bus2=187_117 phases=3 Linecode=4_PSC Length=0.13846 Units=m
New Line.LINE187_117 Bus1=187_108 Bus2=187_118 phases=3 Linecode=2c_.0225 Length=0.25828 Units=m
New Line.LINE187_118 Bus1=187_109 Bus2=187_119 phases=3 Linecode=2c_.0225 Length=0.23321 Units=m
New Line.LINE187_119 Bus1=187_110 Bus2=187_120 phases=3 Linecode=2c_.0225 Length=0.070605 Units=m
New Line.LINE187_120 Bus1=187_111 Bus2=187_121 phases=3 Linecode=2c_.0225 Length=4.1856 Units=m
New Line.LINE187_121 Bus1=187_112 Bus2=187_122 phases=3 Linecode=2c_.0225_UA Length=4.8581 Units=m
New Line.LINE187_122 Bus1=187_112 Bus2=187_123 phases=3 Linecode=4c_.1 Length=0.90518 Units=m
New Line.LINE187_123 Bus1=187_113 Bus2=187_124 phases=3 Linecode=2c_.0225 Length=0.51473 Units=m
New Line.LINE187_124 Bus1=187_114 Bus2=187_125 phases=3 Linecode=2c_.0225 Length=1.8554 Units=m
New Line.LINE187_125 Bus1=187_115 Bus2=187_126 phases=3 Linecode=4c_.1 Length=0.23279 Units=m
New Line.LINE187_126 Bus1=187_116 Bus2=187_127 phases=3 Linecode=2c_.0225_UA Length=3.1556 Units=m
New Line.LINE187_127 Bus1=187_116 Bus2=187_128 phases=3 Linecode=2c_.0225_UA Length=2.1758 Units=m
New Line.LINE187_128 Bus1=187_117 Bus2=187_129 phases=3 Linecode=4_PSC Length=0.128 Units=m
New Line.LINE187_129 Bus1=187_118 Bus2=187_130 phases=3 Linecode=2c_.0225 Length=2.3213 Units=m
New Line.LINE187_130 Bus1=187_119 Bus2=187_131 phases=3 Linecode=2c_.0225 Length=0.20801 Units=m
New Line.LINE187_131 Bus1=187_120 Bus2=187_132 phases=3 Linecode=2c_.0225 Length=7.2907 Units=m
New Line.LINE187_132 Bus1=187_121 Bus2=187_133 phases=3 Linecode=2c_.0225 Length=0.29062 Units=m
New Line.LINE187_133 Bus1=187_122 Bus2=187_134 phases=3 Linecode=2c_.0225_UA Length=8.522 Units=m
New Line.LINE187_134 Bus1=187_123 Bus2=187_135 phases=3 Linecode=2c_.007_VIR Length=1.2052 Units=m
New Line.LINE187_135 Bus1=187_123 Bus2=187_136 phases=3 Linecode=4c_.1 Length=1.7986 Units=m
New Line.LINE187_136 Bus1=187_124 Bus2=187_137 phases=3 Linecode=2c_.0225 Length=0.45792 Units=m
New Line.LINE187_137 Bus1=187_125 Bus2=187_138 phases=3 Linecode=2c_.0225 Length=0.62816 Units=m
New Line.LINE187_138 Bus1=187_126 Bus2=187_139 phases=3 Linecode=4c_.1 Length=0.23844 Units=m
New Line.LINE187_139 Bus1=187_127 Bus2=187_140 phases=3 Linecode=2c_.0225_UA Length=0.37139 Units=m
New Line.LINE187_140 Bus1=187_127 Bus2=187_141 phases=3 Linecode=3c_.03_UA Length=3.7148 Units=m
New Line.LINE187_141 Bus1=187_128 Bus2=187_142 phases=3 Linecode=2c_.0225_UA Length=0.30477 Units=m
New Line.LINE187_142 Bus1=187_128 Bus2=187_143 phases=3 Linecode=3c_.03_UA Length=3.3616 Units=m
New Line.LINE187_143 Bus1=187_129 Bus2=187_144 phases=3 Linecode=4_PSC Length=0.11937 Units=m
New Line.LINE187_144 Bus1=187_130 Bus2=187_145 phases=3 Linecode=2c_.0225 Length=0.47779 Units=m
New Line.LINE187_145 Bus1=187_131 Bus2=187_146 phases=3 Linecode=2c_.0225 Length=0.18522 Units=m
New Line.LINE187_146 Bus1=187_132 Bus2=187_147 phases=3 Linecode=2c_.0225 Length=3.2952 Units=m
New Line.LINE187_147 Bus1=187_133 Bus2=187_148 phases=3 Linecode=2c_.0225 Length=0.23547 Units=m
New Line.LINE187_148 Bus1=187_134 Bus2=187_149 phases=3 Linecode=2c_.0225_UA Length=2.3589 Units=m
New Line.LINE187_149 Bus1=187_134 Bus2=187_150 phases=3 Linecode=2c_.0225_UA Length=2.7389 Units=m
New Line.LINE187_150 Bus1=187_135 Bus2=187_151 phases=3 Linecode=2x_.007 Length=0.77807 Units=m
New Line.LINE187_151 Bus1=187_136 Bus2=187_152 phases=3 Linecode=4c_.1 Length=3.613 Units=m
New Line.LINE187_152 Bus1=187_137 Bus2=187_153 phases=3 Linecode=2c_.0225 Length=2.7202 Units=m
New Line.LINE187_153 Bus1=187_138 Bus2=187_154 phases=3 Linecode=2c_.0225 Length=0.53215 Units=m
New Line.LINE187_154 Bus1=187_139 Bus2=187_155 phases=3 Linecode=4c_.1 Length=0.8411 Units=m
New Line.LINE187_155 Bus1=187_140 Bus2=187_156 phases=3 Linecode=2c_.0225_UA Length=0.055081 Units=m
New Line.LINE187_156 Bus1=187_142 Bus2=187_157 phases=3 Linecode=2c_.0225_UA Length=0.049245 Units=m
New Line.LINE187_157 Bus1=187_144 Bus2=187_158 phases=3 Linecode=4_PSC Length=0.051224 Units=m
New Line.LINE187_158 Bus1=187_145 Bus2=187_159 phases=3 Linecode=2c_.0225 Length=0.49663 Units=m
New Line.LINE187_159 Bus1=187_146 Bus2=187_160 phases=3 Linecode=2c_.0225 Length=0.18455 Units=m
New Line.LINE187_160 Bus1=187_147 Bus2=187_161 phases=3 Linecode=2c_.0225 Length=0.71241 Units=m
New Line.LINE187_161 Bus1=187_148 Bus2=187_162 phases=3 Linecode=2c_.0225 Length=0.40967 Units=m
New Line.LINE187_162 Bus1=187_149 Bus2=187_163 phases=3 Linecode=2c_.0225_UA Length=0.33252 Units=m
New Line.LINE187_163 Bus1=187_149 Bus2=187_164 phases=3 Linecode=3c_.03_UA Length=2.5717 Units=m
New Line.LINE187_164 Bus1=187_150 Bus2=187_165 phases=3 Linecode=2c_.0225_UA Length=1.2554 Units=m
New Line.LINE187_165 Bus1=187_150 Bus2=187_166 phases=3 Linecode=3c_.03_UA Length=2.3109 Units=m
New Line.LINE187_166 Bus1=187_152 Bus2=187_167 phases=3 Linecode=4c_.1 Length=22.3584 Units=m
New Line.LINE187_167 Bus1=187_153 Bus2=187_168 phases=3 Linecode=2c_.0225 Length=1.2652 Units=m
New Line.LINE187_168 Bus1=187_154 Bus2=187_169 phases=3 Linecode=2c_.0225 Length=0.83397 Units=m
New Line.LINE187_169 Bus1=187_156 Bus2=187_170 phases=3 Linecode=2c_.0225_UA Length=0.058601 Units=m
New Line.LINE187_170 Bus1=187_157 Bus2=187_171 phases=3 Linecode=2c_.0225_UA Length=0.065802 Units=m
New Line.LINE187_171 Bus1=187_158 Bus2=187_172 phases=3 Linecode=4_PSC Length=0.107 Units=m
New Line.LINE187_172 Bus1=187_159 Bus2=187_173 phases=3 Linecode=2c_.0225 Length=0.25164 Units=m
New Line.LINE187_173 Bus1=187_160 Bus2=187_174 phases=3 Linecode=2c_.0225 Length=0.65155 Units=m
New Line.LINE187_174 Bus1=187_161 Bus2=187_175 phases=3 Linecode=2c_.0225 Length=0.37648 Units=m
New Line.LINE187_175 Bus1=187_162 Bus2=187_176 phases=3 Linecode=2c_.0225 Length=0.328 Units=m
New Line.LINE187_176 Bus1=187_163 Bus2=187_177 phases=3 Linecode=2c_.0225_UA Length=0.26858 Units=m
New Line.LINE187_177 Bus1=187_165 Bus2=187_178 phases=3 Linecode=2c_.0225_UA Length=0.13649 Units=m
New Line.LINE187_178 Bus1=187_167 Bus2=187_179 phases=3 Linecode=2c_.0225 Length=0.57276 Units=m
New Line.LINE187_179 Bus1=187_167 Bus2=187_180 phases=3 Linecode=4c_.1 Length=0.97646 Units=m
New Line.LINE187_180 Bus1=187_168 Bus2=187_181 phases=3 Linecode=2c_.0225 Length=1.2398 Units=m
New Line.LINE187_181 Bus1=187_169 Bus2=187_182 phases=3 Linecode=2c_.0225 Length=1.3693 Units=m
New Line.LINE187_182 Bus1=187_170 Bus2=187_183 phases=3 Linecode=2c_.0225_UA Length=0.0397 Units=m
New Line.LINE187_183 Bus1=187_171 Bus2=187_184 phases=3 Linecode=2c_.0225_UA Length=3.7495 Units=m
New Line.LINE187_184 Bus1=187_172 Bus2=187_185 phases=3 Linecode=4_PSC Length=1.7617 Units=m
New Line.LINE187_185 Bus1=187_173 Bus2=187_186 phases=3 Linecode=2c_.0225 Length=0.29592 Units=m
New Line.LINE187_186 Bus1=187_174 Bus2=187_187 phases=3 Linecode=2c_.0225 Length=4.1471 Units=m
New Line.LINE187_187 Bus1=187_175 Bus2=187_188 phases=3 Linecode=2c_.0225 Length=0.43812 Units=m
New Line.LINE187_188 Bus1=187_176 Bus2=187_189 phases=3 Linecode=2c_.0225 Length=0.51047 Units=m
New Line.LINE187_189 Bus1=187_177 Bus2=187_190 phases=3 Linecode=2c_.0225_UA Length=0.2739 Units=m
New Line.LINE187_190 Bus1=187_178 Bus2=187_191 phases=3 Linecode=2c_.0225_UA Length=0.097801 Units=m
New Line.LINE187_191 Bus1=187_179 Bus2=187_192 phases=3 Linecode=2c_.0225 Length=0.1358 Units=m
New Line.LINE187_192 Bus1=187_180 Bus2=187_193 phases=3 Linecode=2c_.0225 Length=0.54507 Units=m
New Line.LINE187_193 Bus1=187_180 Bus2=187_194 phases=3 Linecode=4c_.1 Length=18.0991 Units=m
New Line.LINE187_194 Bus1=187_181 Bus2=187_195 phases=3 Linecode=2c_.0225 Length=0.47361 Units=m
New Line.LINE187_195 Bus1=187_182 Bus2=187_196 phases=3 Linecode=2c_.0225 Length=0.75833 Units=m
New Line.LINE187_196 Bus1=187_183 Bus2=187_197 phases=3 Linecode=2c_.0225_UA Length=3.7845 Units=m
New Line.LINE187_197 Bus1=187_184 Bus2=187_198 phases=3 Linecode=2c_.0225_UA Length=0.1188 Units=m
New Line.LINE187_198 Bus1=187_185 Bus2=187_199 phases=3 Linecode=4_PSC Length=0.403 Units=m
New Line.LINE187_199 Bus1=187_186 Bus2=187_200 phases=3 Linecode=2c_.0225 Length=0.22824 Units=m
New Line.LINE187_200 Bus1=187_188 Bus2=187_201 phases=3 Linecode=2c_.0225 Length=0.30076 Units=m
New Line.LINE187_201 Bus1=187_189 Bus2=187_202 phases=3 Linecode=2c_.0225 Length=1.2777 Units=m
New Line.LINE187_202 Bus1=187_190 Bus2=187_203 phases=3 Linecode=2c_.0225_UA Length=0.45869 Units=m
New Line.LINE187_203 Bus1=187_191 Bus2=187_204 phases=3 Linecode=2c_.0225_UA Length=0.090554 Units=m
New Line.LINE187_204 Bus1=187_192 Bus2=187_205 phases=3 Linecode=2c_.0225 Length=0.10577 Units=m
New Line.LINE187_205 Bus1=187_193 Bus2=187_206 phases=3 Linecode=2c_.0225 Length=0.090552 Units=m
New Line.LINE187_206 Bus1=187_194 Bus2=187_207 phases=3 Linecode=4_PC Length=0.35648 Units=m
New Line.LINE187_207 Bus1=187_194 Bus2=187_208 phases=3 Linecode=4c_.1 Length=15.0834 Units=m
New Line.LINE187_208 Bus1=187_195 Bus2=187_209 phases=3 Linecode=2c_.0225 Length=0.6667 Units=m
New Line.LINE187_209 Bus1=187_196 Bus2=187_210 phases=3 Linecode=2c_.0225 Length=2.2306 Units=m
New Line.LINE187_210 Bus1=187_197 Bus2=187_211 phases=3 Linecode=2c_.0225_UA Length=0.19208 Units=m
New Line.LINE187_211 Bus1=187_198 Bus2=187_212 phases=3 Linecode=2c_.0225_UA Length=0.11183 Units=m
New Line.LINE187_212 Bus1=187_199 Bus2=187_213 phases=3 Linecode=4_PSC Length=0.084173 Units=m
New Line.LINE187_213 Bus1=187_200 Bus2=187_214 phases=3 Linecode=2c_.0225 Length=0.1968 Units=m
New Line.LINE187_214 Bus1=187_201 Bus2=187_215 phases=3 Linecode=2c_.0225 Length=0.25691 Units=m
New Line.LINE187_215 Bus1=187_202 Bus2=187_216 phases=3 Linecode=2c_.0225 Length=0.87505 Units=m
New Line.LINE187_216 Bus1=187_203 Bus2=187_217 phases=3 Linecode=2c_.0225_UA Length=0.58921 Units=m
New Line.LINE187_217 Bus1=187_204 Bus2=187_218 phases=3 Linecode=2c_.0225_UA Length=0.13219 Units=m
New Line.LINE187_218 Bus1=187_205 Bus2=187_219 phases=3 Linecode=2c_.0225 Length=0.12857 Units=m
New Line.LINE187_219 Bus1=187_206 Bus2=187_220 phases=3 Linecode=2c_.0225 Length=0.080133 Units=m
New Line.LINE187_220 Bus1=187_207 Bus2=187_221 phases=3 Linecode=4_PC Length=0.096566 Units=m
New Line.LINE187_221 Bus1=187_208 Bus2=187_222 phases=3 Linecode=2c_.007_VIR Length=0.28324 Units=m
New Line.LINE187_222 Bus1=187_208 Bus2=187_223 phases=3 Linecode=4c_.1 Length=0.66903 Units=m
New Line.LINE187_223 Bus1=187_209 Bus2=187_224 phases=3 Linecode=2c_.0225 Length=1.4519 Units=m
New Line.LINE187_224 Bus1=187_210 Bus2=187_225 phases=3 Linecode=2c_.0225 Length=0.25258 Units=m
New Line.LINE187_225 Bus1=187_211 Bus2=187_226 phases=3 Linecode=2c_.0225_UA Length=0.065788 Units=m
New Line.LINE187_226 Bus1=187_212 Bus2=187_227 phases=3 Linecode=2c_.0225_UA Length=0.11885 Units=m
New Line.LINE187_227 Bus1=187_213 Bus2=187_228 phases=3 Linecode=4_PSC Length=0.081999 Units=m
New Line.LINE187_228 Bus1=187_214 Bus2=187_229 phases=3 Linecode=2c_.0225 Length=0.20083 Units=m
New Line.LINE187_229 Bus1=187_215 Bus2=187_230 phases=3 Linecode=2c_.0225 Length=0.35483 Units=m
New Line.LINE187_230 Bus1=187_216 Bus2=187_231 phases=3 Linecode=2c_.0225 Length=0.70223 Units=m
New Line.LINE187_231 Bus1=187_217 Bus2=187_232 phases=3 Linecode=2c_.0225_UA Length=0.31506 Units=m
New Line.LINE187_232 Bus1=187_218 Bus2=187_233 phases=3 Linecode=2c_.0225_UA Length=0.16192 Units=m
New Line.LINE187_233 Bus1=187_219 Bus2=187_234 phases=3 Linecode=2c_.0225 Length=0.12004 Units=m
New Line.LINE187_234 Bus1=187_220 Bus2=187_235 phases=3 Linecode=2c_.0225 Length=0.07433 Units=m
New Line.LINE187_235 Bus1=187_221 Bus2=187_236 phases=3 Linecode=4_PC Length=0.12621 Units=m
New Line.LINE187_236 Bus1=187_222 Bus2=187_237 phases=3 Linecode=2c_.007_VIR Length=0.14649 Units=m
New Line.LINE187_237 Bus1=187_223 Bus2=187_238 phases=3 Linecode=25_SAC_PC Length=1.3564 Units=m
New Line.LINE187_238 Bus1=187_223 Bus2=187_239 phases=3 Linecode=4c_.1 Length=12.3661 Units=m
New Line.LINE187_239 Bus1=187_224 Bus2=187_240 phases=3 Linecode=2c_.0225 Length=0.27722 Units=m
New Line.LINE187_240 Bus1=187_225 Bus2=187_241 phases=3 Linecode=2c_.0225 Length=0.20662 Units=m
New Line.LINE187_241 Bus1=187_226 Bus2=187_242 phases=3 Linecode=2c_.0225_UA Length=0.069999 Units=m
New Line.LINE187_242 Bus1=187_227 Bus2=187_243 phases=3 Linecode=2c_.0225_UA Length=0.13678 Units=m
New Line.LINE187_243 Bus1=187_228 Bus2=187_244 phases=3 Linecode=4_PSC Length=0.11453 Units=m
New Line.LINE187_244 Bus1=187_229 Bus2=187_245 phases=3 Linecode=2c_.0225 Length=0.391 Units=m
New Line.LINE187_245 Bus1=187_230 Bus2=187_246 phases=3 Linecode=2c_.0225 Length=1.2685 Units=m
New Line.LINE187_246 Bus1=187_231 Bus2=187_247 phases=3 Linecode=2c_.0225 Length=1.1222 Units=m
New Line.LINE187_247 Bus1=187_232 Bus2=187_248 phases=3 Linecode=2c_.0225_UA Length=0.3241 Units=m
New Line.LINE187_248 Bus1=187_233 Bus2=187_249 phases=3 Linecode=2c_.0225_UA Length=1.1945 Units=m
New Line.LINE187_249 Bus1=187_234 Bus2=187_250 phases=3 Linecode=2c_.0225 Length=0.11254 Units=m
New Line.LINE187_250 Bus1=187_235 Bus2=187_251 phases=3 Linecode=2c_.0225 Length=0.093861 Units=m
New Line.LINE187_251 Bus1=187_236 Bus2=187_252 phases=3 Linecode=4_PC Length=0.098489 Units=m
New Line.LINE187_252 Bus1=187_237 Bus2=187_253 phases=3 Linecode=2c_.007_VIR Length=0.15344 Units=m
New Line.LINE187_253 Bus1=187_238 Bus2=187_254 phases=3 Linecode=25_SAC_PC Length=12.1323 Units=m
New Line.LINE187_254 Bus1=187_239 Bus2=187_255 phases=3 Linecode=25_PSC Length=0.14699 Units=m
New Line.LINE187_255 Bus1=187_239 Bus2=187_256 phases=3 Linecode=25_PSC Length=0.29538 Units=m
New Line.LINE187_256 Bus1=187_239 Bus2=187_257 phases=3 Linecode=4c_.1 Length=1.5129 Units=m
New Line.LINE187_257 Bus1=187_240 Bus2=187_258 phases=3 Linecode=2c_.0225 Length=0.15838 Units=m
New Line.LINE187_258 Bus1=187_241 Bus2=187_259 phases=3 Linecode=2c_.0225 Length=0.19876 Units=m
New Line.LINE187_259 Bus1=187_242 Bus2=187_260 phases=3 Linecode=2c_.0225_UA Length=0.097099 Units=m
New Line.LINE187_260 Bus1=187_243 Bus2=187_261 phases=3 Linecode=2c_.0225_UA Length=0.16082 Units=m
New Line.LINE187_261 Bus1=187_244 Bus2=187_262 phases=3 Linecode=4_PSC Length=0.18283 Units=m
New Line.LINE187_262 Bus1=187_245 Bus2=187_263 phases=3 Linecode=2c_.0225 Length=0.1586 Units=m
New Line.LINE187_263 Bus1=187_246 Bus2=187_264 phases=3 Linecode=2c_.0225 Length=2.6427 Units=m
New Line.LINE187_264 Bus1=187_247 Bus2=187_265 phases=3 Linecode=2c_.0225 Length=0.5285 Units=m
New Line.LINE187_265 Bus1=187_248 Bus2=187_266 phases=3 Linecode=2c_.0225_UA Length=0.34714 Units=m
New Line.LINE187_266 Bus1=187_249 Bus2=187_267 phases=3 Linecode=2c_.0225_UA Length=2.4918 Units=m
New Line.LINE187_267 Bus1=187_250 Bus2=187_268 phases=3 Linecode=2c_.0225 Length=0.19259 Units=m
New Line.LINE187_268 Bus1=187_251 Bus2=187_269 phases=3 Linecode=2c_.0225 Length=0.10673 Units=m
New Line.LINE187_269 Bus1=187_252 Bus2=187_270 phases=3 Linecode=4_PC Length=0.087097 Units=m
New Line.LINE187_270 Bus1=187_253 Bus2=187_271 phases=3 Linecode=2c_.007_VIR Length=0.15203 Units=m
New Line.LINE187_271 Bus1=187_254 Bus2=187_272 phases=3 Linecode=25_SAC_PC Length=1.0685 Units=m
New Line.LINE187_272 Bus1=187_254 Bus2=187_273 phases=3 Linecode=25_SAC_PC Length=1.3072 Units=m
New Line.LINE187_273 Bus1=187_255 Bus2=187_274 phases=3 Linecode=25_PSC Length=0.11638 Units=m
New Line.LINE187_274 Bus1=187_256 Bus2=187_275 phases=3 Linecode=25_PSC Length=0.12298 Units=m
New Line.LINE187_275 Bus1=187_257 Bus2=187_276 phases=3 Linecode=4c_.1 Length=1.7948 Units=m
New Line.LINE187_276 Bus1=187_258 Bus2=187_277 phases=3 Linecode=2c_.0225 Length=0.21868 Units=m
New Line.LINE187_277 Bus1=187_259 Bus2=187_278 phases=3 Linecode=2c_.0225 Length=0.21679 Units=m
New Line.LINE187_278 Bus1=187_260 Bus2=187_279 phases=3 Linecode=2c_.0225_UA Length=0.12828 Units=m
New Line.LINE187_279 Bus1=187_261 Bus2=187_280 phases=3 Linecode=2c_.0225_UA Length=0.20271 Units=m
New Line.LINE187_280 Bus1=187_262 Bus2=187_281 phases=3 Linecode=4_PSC Length=2.7502 Units=m
New Line.LINE187_281 Bus1=187_263 Bus2=187_282 phases=3 Linecode=2c_.0225 Length=0.146 Units=m
New Line.LINE187_282 Bus1=187_265 Bus2=187_283 phases=3 Linecode=2c_.0225 Length=0.69599 Units=m
New Line.LINE187_283 Bus1=187_266 Bus2=187_284 phases=3 Linecode=2c_.0225_UA Length=0.44489 Units=m
New Line.LINE187_284 Bus1=187_267 Bus2=187_285 phases=3 Linecode=2c_.0225_UA Length=0.18938 Units=m
New Line.LINE187_285 Bus1=187_268 Bus2=187_286 phases=3 Linecode=2c_.0225 Length=0.25316 Units=m
New Line.LINE187_286 Bus1=187_269 Bus2=187_287 phases=3 Linecode=2c_.0225 Length=0.13164 Units=m
New Line.LINE187_287 Bus1=187_270 Bus2=187_288 phases=3 Linecode=4_PC Length=0.06619 Units=m
New Line.LINE187_288 Bus1=187_271 Bus2=187_289 phases=3 Linecode=2c_.007_VIR Length=0.21902 Units=m
New Line.LINE187_289 Bus1=187_273 Bus2=187_290 phases=3 Linecode=25_SAC_PC Length=0.076837 Units=m
New Line.LINE187_290 Bus1=187_273 Bus2=187_291 phases=3 Linecode=35_SAC_PC Length=0.07596 Units=m
New Line.LINE187_291 Bus1=187_274 Bus2=187_292 phases=3 Linecode=25_PSC Length=0.11543 Units=m
New Line.LINE187_292 Bus1=187_275 Bus2=187_293 phases=3 Linecode=25_PSC Length=0.080623 Units=m
New Line.LINE187_293 Bus1=187_277 Bus2=187_294 phases=3 Linecode=2c_.0225 Length=0.21949 Units=m
New Line.LINE187_294 Bus1=187_278 Bus2=187_295 phases=3 Linecode=2c_.0225 Length=0.17503 Units=m
New Line.LINE187_295 Bus1=187_279 Bus2=187_296 phases=3 Linecode=2c_.0225_UA Length=0.48798 Units=m
New Line.LINE187_296 Bus1=187_280 Bus2=187_297 phases=3 Linecode=2c_.0225_UA Length=4.5679 Units=m
New Line.LINE187_297 Bus1=187_281 Bus2=187_298 phases=3 Linecode=4_PSC Length=2.5265 Units=m
New Line.LINE187_298 Bus1=187_282 Bus2=187_299 phases=3 Linecode=2c_.0225 Length=0.17734 Units=m
New Line.LINE187_299 Bus1=187_283 Bus2=187_300 phases=3 Linecode=2c_.0225 Length=0.65663 Units=m
New Line.LINE187_300 Bus1=187_284 Bus2=187_301 phases=3 Linecode=2c_.0225_UA Length=0.39679 Units=m
New Line.LINE187_301 Bus1=187_285 Bus2=187_302 phases=3 Linecode=2c_.0225_UA Length=0.15611 Units=m
New Line.LINE187_302 Bus1=187_286 Bus2=187_303 phases=3 Linecode=2c_.0225 Length=0.10455 Units=m
New Line.LINE187_303 Bus1=187_287 Bus2=187_304 phases=3 Linecode=2c_.0225 Length=0.12504 Units=m
New Line.LINE187_304 Bus1=187_288 Bus2=187_305 phases=3 Linecode=4_PC Length=0.086763 Units=m
New Line.LINE187_305 Bus1=187_290 Bus2=187_306 phases=3 Linecode=25_SAC_PC Length=0.063638 Units=m
New Line.LINE187_306 Bus1=187_291 Bus2=187_307 phases=3 Linecode=35_SAC_PC Length=0.031321 Units=m
New Line.LINE187_307 Bus1=187_292 Bus2=187_308 phases=3 Linecode=25_PSC Length=0.086683 Units=m
New Line.LINE187_308 Bus1=187_293 Bus2=187_309 phases=3 Linecode=25_PSC Length=0.077414 Units=m
New Line.LINE187_309 Bus1=187_294 Bus2=187_310 phases=3 Linecode=2c_.0225 Length=0.14966 Units=m
New Line.LINE187_310 Bus1=187_295 Bus2=187_311 phases=3 Linecode=2c_.0225 Length=0.64457 Units=m
New Line.LINE187_311 Bus1=187_296 Bus2=187_312 phases=3 Linecode=2c_.0225_UA Length=4.5878 Units=m
New Line.LINE187_312 Bus1=187_297 Bus2=187_313 phases=3 Linecode=2c_.0225_UA Length=2.9883 Units=m
New Line.LINE187_313 Bus1=187_299 Bus2=187_314 phases=3 Linecode=2c_.0225 Length=0.69257 Units=m