New Load.LOAD187_1 Phases=1 Bus1=187_45.1 kV=0.23 kW=1 PF=0.95
New Load.LOAD187_2 Phases=1 Bus1=187_141.2 kV=0.23 kW=1 PF=0.95
New Load.LOAD187_3 Phases=1 Bus1=187_143.3 kV=0.23 kW=1 PF=0.95
New Load.LOAD187_4 Phases=1 Bus1=187_164.3 kV=0.23 kW=1 PF=0.95
New Load.LOAD187_5 Phases=1 Bus1=187_166.3 kV=0.23 kW=1 PF=0.95
New Load.LOAD187_6 Phases=1 Bus1=187_187.1 kV=0.23 kW=1 PF=0.95
New Load.LOAD187_7 Phases=1 Bus1=187_264.3 kV=0.23 kW=1 PF=0.95
New Load.LOAD187_8 Phases=1 Bus1=187_328.1 kV=0.23 kW=1 PF=0.95
New Load.LOAD187_9 Phases=1 Bus1=187_342.3 kV=0.23 kW=1 PF=0.95
New Load.LOAD187_10 Phases=1 Bus1=187_370.3 kV=0.23 kW=1 PF=0.95
New Load.LOAD187_11 Phases=1 Bus1=187_382.2 kV=0.23 kW=1 PF=0.95
New Load.LOAD187_12 Phases=1 Bus1=187_391.1 kV=0.23 kW=1 PF=0.95
New Load.LOAD187_13 Phases=1 Bus1=187_402.2 kV=0.23 kW=1 PF=0.95
New Load.LOAD187_14 Phases=1 Bus1=187_411.2 kV=0.23 kW=1 PF=0.95
New Load.LOAD187_15 Phases=1 Bus1=187_447.1 kV=0.23 kW=1 PF=0.95
New Load.LOAD187_16 Phases=1 Bus1=187_503.2 kV=0.23 kW=1 PF=0.95
New Load.LOAD187_17 Phases=1 Bus1=187_508.2 kV=0.23 kW=1 PF=0.95
New Load.LOAD187_18 Phases=1 Bus1=187_516.2 kV=0.23 kW=1 PF=0.95
New Load.LOAD187_19 Phases=1 Bus1=187_526.1 kV=0.23 kW=1 PF=0.95
New Load.LOAD187_20 Phases=1 Bus1=187_528.2 kV=0.23 kW=1 PF=0.95
New Load.LOAD187_21 Phases=1 Bus1=187_542.1 kV=0.23 kW=1 PF=0.95
New Load.LOAD187_22 Phases=1 Bus1=187_555.3 kV=0.23 kW=1 PF=0.95
New Load.LOAD187_23 Phases=1 Bus1=187_561.3 kV=0.23 kW=1 PF=0.95
New Load.LOAD187_24 Phases=1 Bus1=187_564.1 kV=0.23 kW=1 PF=0.95
New Load.LOAD187_25 Phases=1 Bus1=187_585.3 kV=0.23 kW=1 PF=0.95
New Load.LOAD187_26 Phases=1 Bus1=187_616.1 kV=0.23 kW=1 PF=0.95
New Load.LOAD187_27 Phases=1 Bus1=187_631.1 kV=0.23 kW=1 PF=0.95
New Load.LOAD187_28 Phases=1 Bus1=187_635.3 kV=0.23 kW=1 PF=0.95
